%mem=14GB
%chk=checkpoint.chk
%nprocshared=16
#P B3LYP/6-311+g(d) force ! ASE formatted method and basis

Gaussian input prepared by ASE

0 2
Na                4.7889844196        0.2145162836        2.2337253077
Na                7.6159647849        1.0993700792        2.7049291717
Na                6.7840563670        0.1180986257        0.0000000000
Na                5.7932376887        2.7618968778        1.0030850275
Na                3.0240024800        3.9083640691        1.1878695075
Na                2.0721187893        1.4409802885        2.6133645634
Na                0.0000000000        0.0000000000        0.9894740506


