%mem=14GB
%chk=checkpoint.chk
%nprocshared=16
#P B3LYP/6-311+g(d) force ! ASE formatted method and basis

Gaussian input prepared by ASE

0 2
Na                5.2634553562        1.5362095273        0.0000000000
Na                5.2885582186        3.9816523337        1.7286381668
Na                5.3052108902        1.2638284553        2.9839771141
Na                2.8298426050        2.2591860464        1.6060796688
Na                0.9848701232        4.5253562813        2.3079944754
Na                0.0000000000        2.2642229251        0.6068420969
Na                0.9771926379        0.0000000000        2.3079677024


