%mem=14GB
%chk=checkpoint.chk
%nprocshared=16
#P B3LYP/6-311+g(d) force ! ASE formatted method and basis

Gaussian input prepared by ASE

0 2
Na                2.3512073255        2.2058305757        3.1099646255
Na                1.3485428266        0.0000000000        1.5122672358
Na                0.0000000000        2.7635326432        1.4804873779
Na                2.3001245627        4.7768306472        1.7095853233
Na                5.0136161372        3.3551288667        1.5174861852
Na                2.9581673641        1.9116767712        0.0000000000
Na                4.3661683013        0.3889761653        2.0322455227


