%mem=14GB
%chk=checkpoint.chk
%nprocshared=16
#P B3LYP/6-311+g(d) force ! ASE formatted method and basis

Gaussian input prepared by ASE

0 2
Na                6.6028621507        1.8641357138        2.3049004592
Na                5.2324493848        0.0000000000        0.3938246180
Na               10.9248207960        3.3754998956        0.8402718248
Na                7.9968257484        3.4867447515        0.2008948929
Na                5.0464994384        2.9691127234        0.0000000000
Na                2.6507005139        4.1150769583        1.4026380171
Na                0.0000000000        2.9316945825        0.6432540971


