%mem=14GB
%chk=checkpoint.chk
%nprocshared=16
#P B3LYP/6-311+g(d) force ! ASE formatted method and basis

Gaussian input prepared by ASE

0 2
Na                2.4962818454        2.9887672958        1.8516347854
Na                3.4215417430        1.4359197795        3.8516702622
Na                0.0000000000        1.6805002075        1.9205109490
Na                2.2638474735        0.0000000000        1.9358748745
Na                3.5180025352        1.3192411533        0.0000000000
Na                4.9472659626        0.1758709539        1.9989720927
Na                5.1743640012        2.8232846876        1.9247759114


