%mem=14GB
%chk=checkpoint.chk
%nprocshared=16
#P B3LYP/6-311+g(d) force ! ASE formatted method and basis

Gaussian input prepared by ASE

0 2
Na                2.5510967813        1.0180332208        0.4315883653
Na                2.6333108818        3.9895347990        0.0000000000
Na                0.0000000000        2.5918284723        0.3278874212
Na                1.8463403095        2.8799602620        2.6717618929
Na                5.2416464198        5.3689154966        0.5475830126
Na                4.6910814645        2.6706492486        1.7351756311
Na                5.3721954147        0.0000000000        0.5446931059


