%mem=14GB
%chk=checkpoint.chk
%nprocshared=16
#P B3LYP/6-311+g(d) force ! ASE formatted method and basis

Gaussian input prepared by ASE

0 2
Na                7.3725208385        2.7329814489        0.0000000000
Na                7.0376280488        0.0000000000        1.1892696103
Na                8.6102283789        0.8485149540        3.6056871044
Na                7.4782792427        3.5377460669        2.8905811152
Na                5.0462079748        2.1639813465        1.7936437598
Na                2.2317760402        2.9587746486        2.4481996259
Na                0.0000000000        0.9947640299        2.0714423196


