%mem=14GB
%chk=checkpoint.chk
%nprocshared=16
#P B3LYP/6-311+g(d) force ! ASE formatted method and basis

Gaussian input prepared by ASE

0 2
Na                1.8710260422        1.8665366968        2.9417301872
Na                3.7332898395        3.6922917244        1.4371451678
Na                6.1018809385        1.8702549488        1.5188245331
Na                3.7355653214        0.0438599840        1.4367763403
Na                0.0000000000        3.7359573413        1.5052013873
Na                1.8159089303        1.8669587616        0.0000000000
Na                0.0031546499        0.0000000000        1.5052841177


