%mem=14GB
%chk=checkpoint.chk
%nprocshared=16
#P B3LYP/6-311+g(d) force ! ASE formatted method and basis

Gaussian input prepared by ASE

0 2
Na                2.7070340899        3.5334310707        1.2686503055
Na                2.3476814986        1.0827327067        2.9669049741
Na                4.9233447576        1.7944053537        1.8832597826
Na                2.8441623311        0.5923926555        0.2948116329
Na                0.1457918685        0.0000000000        1.7008030900
Na                0.0000000000        2.9407552082        2.6718318420
Na                0.5033943507        2.4557252269        0.0000000000


