%mem=14GB
%chk=checkpoint.chk
%nprocshared=16
#P B3LYP/6-311+g(d) force ! ASE formatted method and basis

Gaussian input prepared by ASE

0 2
Na                2.0860508889        1.5343829460        3.0808092212
Na                2.6509001359        4.0151421766        2.2189861956
Na                4.7035957262        2.7578167932        1.0240520282
Na                2.1433781518        2.4601170208        0.0000000000
Na                0.0000000000        2.6249475172        1.6927454509
Na                1.3137539571        0.0000000000        0.9294325999
Na                4.0562570847        0.2124058293        2.0317275695


