%mem=14GB
%chk=checkpoint.chk
%nprocshared=16
#P B3LYP/6-311+g(d) force ! ASE formatted method and basis

Gaussian input prepared by ASE

0 2
Na                1.7323531343        2.8117002285        1.6891138433
Na                0.0000000000        1.0358404723        0.0000000000
Na                1.1653130390        0.0000000000        2.5629529823
Na                3.9925127657        0.8787003054        2.0851283159
Na                6.6754963813        1.3801501794        0.8449597423
Na                9.2868111922        2.2133355242        2.0664784267
Na               11.3979686873        0.3936449549        0.9505906949


