%mem=14GB
%chk=checkpoint.chk
%nprocshared=16
#P B3LYP/6-311+g(d) force ! ASE formatted method and basis

Gaussian input prepared by ASE

0 2
Na                4.7939256593        0.8766429767        1.9734652399
Na                2.8094480702        2.2674188067        0.0000000000
Na                1.9015086074        0.0000000000        1.4793680782
Na                0.0000000000        2.3749298708        1.6288181258
Na                2.8112603776        2.4832322531        3.2540057095
Na                1.9062743718        4.7497158587        1.7678909616
Na                4.7998150534        3.8633586195        1.2795071906


