%mem=14GB
%chk=checkpoint.chk
%nprocshared=16
#P B3LYP/6-311+g(d) force ! ASE formatted method and basis

Gaussian input prepared by ASE

0 2
Na                3.1813761269        2.2282626581        0.0000000000
Na                1.0400773466        0.1966878809        0.5390875136
Na                6.6662240796        0.3156107710        2.1569601515
Na                3.6927768160        0.0000000000        1.9310797342
Na                0.0000000000        1.9720539649        2.7263401303
Na                2.9022040243        2.7158472698        2.9462453205
Na                4.3966603854        4.6726502555        1.2366480352


