%mem=14GB
%chk=checkpoint.chk
%nprocshared=16
#P B3LYP/6-311+g(d) force ! ASE formatted method and basis

Gaussian input prepared by ASE

0 2
Na                2.6388221509        2.4867897180        1.9624055613
Na                6.4519836959        5.0386542044        1.4145146588
Na                6.6795100456        0.0000000000        0.5857876043
Na                5.1515711778        2.5678501810        0.3184408325
Na                3.5336620000        5.0602112715        0.7170391366
Na                0.8609793436        3.8965301182        0.0000000000
Na                0.0000000000        1.2825774156        1.1931502194


