%mem=14GB
%chk=checkpoint.chk
%nprocshared=16
#P B3LYP/6-311+g(d) force ! ASE formatted method and basis

Gaussian input prepared by ASE

0 2
Na                2.9865358250        1.7486312832        2.4556407224
Na                3.1170636755        4.7169815863        1.9947156064
Na                5.6866295815        0.5401303283        1.9463263734
Na                4.7519017914        2.8657213183        0.3028836510
Na                1.7641558908        2.9268233041        0.0000000000
Na                0.0000000000        2.0241631549        2.2595265690
Na                1.4236495070        0.0000000000        0.5785761393


