%mem=14GB
%chk=checkpoint.chk
%nprocshared=16
#P B3LYP/6-311+g(d) force ! ASE formatted method and basis

Gaussian input prepared by ASE

0 2
Na                8.5018145255        0.3780229834        0.0944806793
Na                0.0000000000        0.0000000000        0.0647337912
Na                0.7915561070        4.4222614115        0.1323925290
Na                2.3573808440        1.8597252276        0.0565625557
Na                5.0599329284        3.1604435635        0.0000000000
Na                8.0539803194        3.3427883011        0.0306339876
Na               10.8434477170        2.2490678804        0.1109700301


