%mem=14GB
%chk=checkpoint.chk
%nprocshared=16
#P B3LYP/6-311+g(d) force ! ASE formatted method and basis

Gaussian input prepared by ASE

0 2
Na                0.0000000000        3.1167696719        1.5828243915
Na                4.0020344449        4.1474548191        1.1674502417
Na                7.5325867908        1.4176844023        1.8935274502
Na                5.0723788731        0.0000000000        0.9223156370
Na                2.5492762171        1.5339518434        1.4897323592
Na                0.1763289741        0.4814743334        2.9932552737
Na                0.1292715034        0.5775160407        0.0000000000


