%mem=14GB
%chk=checkpoint.chk
%nprocshared=16
#P B3LYP/6-311+g(d) force ! ASE formatted method and basis

Gaussian input prepared by ASE

0 2
Na                2.4445747695        2.3457951645        0.0000000000
Na                2.4313796726        0.0000000000        1.6565776659
Na                0.0000000000        1.8808641517        1.4675447740
Na                1.2590964957        4.6734042903        1.2630003183
Na                2.8082711761        2.4457779484        3.1867097423
Na                4.2987316981        4.4265911601        1.6392620502
Na                5.0342941421        1.5121307892        1.0071152456


