%mem=14GB
%chk=checkpoint.chk
%nprocshared=16
#P B3LYP/6-311+g(d) force ! ASE formatted method and basis

Gaussian input prepared by ASE

0 2
Na                4.4889780260        1.1875711345        2.6057763648
Na                4.5588410071        3.9165512468        1.3642470871
Na                6.9989693124        2.1716536106        1.2941846373
Na                5.3790131530        0.0000000000        0.0000000000
Na                2.9230076995        1.7296081452        0.1138234355
Na                1.5160191951        0.7831603147        2.5889831021
Na                0.0000000000        2.2895319292        0.4856184024


