%mem=14GB
%chk=checkpoint.chk
%nprocshared=16
#P B3LYP/6-311+g(d) force ! ASE formatted method and basis

Gaussian input prepared by ASE

0 2
Na                2.1599960925        2.2634308620        3.2841741762
Na                2.7001185333        0.0000000000        1.3651770447
Na                0.0000000000        0.9339712147        2.0448248566
Na                0.5130179064        3.7944675094        1.6030984135
Na                3.4488244304        4.0519703992        1.6883216597
Na                2.2330073791        2.2259420550        0.0000000000
Na                4.7181814316        1.6715556323        2.0591400855


