%mem=14GB
%chk=checkpoint.chk
%nprocshared=16
#P B3LYP/6-311+g(d) force ! ASE formatted method and basis

Gaussian input prepared by ASE

0 2
Na                3.0180351913        3.0054390062        0.7296482418
Na                3.0051311889        0.0029566124        0.6922045962
Na                5.5061089968        1.5026139319        0.0000000000
Na                4.5103194220        1.4713599033        2.8283165067
Na                1.5097620478        1.4845390877        2.8266969192
Na                0.0000000000        0.0000000000        0.7017153715
Na                0.0121498244        3.0031140216        0.7176527899


