%mem=14GB
%chk=checkpoint.chk
%nprocshared=16
#P B3LYP/6-311+g(d) force ! ASE formatted method and basis

Gaussian input prepared by ASE

0 2
Na                3.9378904539        0.7907399550        2.1956141956
Na                2.0603895059        0.0000000000        0.0000000000
Na                8.1944136655        2.9552627779        1.4314647624
Na                5.5723211780        2.2656421860        0.1646509755
Na                0.0000000000        3.4419935491        1.8075649498
Na                2.6556124915        2.9031259792        0.5061392956
Na                3.2772095237        5.8434590484        0.5684592560


