%mem=14GB
%chk=checkpoint.chk
%nprocshared=16
#P B3LYP/6-311+g(d) force ! ASE formatted method and basis

Gaussian input prepared by ASE

0 2
Na                2.1512313550        3.5882807368        1.5641128778
Na                2.1560696452        1.7520340433        3.7089176830
Na                4.3099628090        2.4462304720        2.0225045834
Na                0.0000000000        2.4320426957        2.0218208120
Na                2.1594315322        1.4610786350        0.0000000000
Na                3.4873649173        0.0085575819        1.9277504656
Na                0.8429259661        0.0000000000        1.9256308300


