%mem=14GB
%chk=checkpoint.chk
%nprocshared=16
#P B3LYP/6-311+g(d) force ! ASE formatted method and basis

Gaussian input prepared by ASE

0 2
Na                2.8598442950        2.0242893618        3.3436542594
Na                1.9052771264        0.0000000000        1.8078063568
Na                4.7889789390        0.5737455198        1.7442838820
Na                4.7544164687        3.5081859893        1.7384616254
Na                1.8654539889        4.0458093961        1.8278925189
Na                0.0000000000        2.0000688378        2.4184680673
Na                1.7791856737        2.0323598725        0.0000000000


