%mem=14GB
%chk=checkpoint.chk
%nprocshared=16
#P B3LYP/6-311+g(d) force ! ASE formatted method and basis

Gaussian input prepared by ASE

0 2
Na                4.4272414251        0.4871022308        0.5203176919
Na                0.0000000000        2.2123843174        0.0000000000
Na                1.5671646547        0.0000000000        1.2911098738
Na                1.5409361909        1.7595777221        3.7280955222
Na                1.6941074489        3.9916743075        1.7253008225
Na                4.3782760992        3.4850052092        0.4835029443
Na                6.5401875339        2.0387634246        1.9635460375


