%mem=14GB
%chk=checkpoint.chk
%nprocshared=16
#P B3LYP/6-311+g(d) force ! ASE formatted method and basis

Gaussian input prepared by ASE

0 2
Na                1.3456959544        0.3192047845        0.5307903669
Na                6.8933608408        0.0000000000        0.9583324282
Na                7.9567460197        2.7382500590        1.5768116081
Na                5.6487731547        3.8298020341        0.0000000000
Na                4.1973143855        1.2572013182        0.5475626001
Na                2.2508121397        2.2993272624        2.5811571575
Na                0.0000000000        2.9915210724        0.7266665549


