%mem=14GB
%chk=checkpoint.chk
%nprocshared=16
#P B3LYP/6-311+g(d) force ! ASE formatted method and basis

Gaussian input prepared by ASE

0 2
Na                2.4751272896        2.6917904739        0.0000000000
Na                2.3539349398        0.0000000000        1.3012913335
Na                0.0000000000        1.8520652764        1.4646210206
Na                2.5063063337        2.4662271028        2.9887095937
Na                7.4840706729        0.0688254011        1.4489551381
Na                4.8976420218        1.5983090438        1.3961290765
Na                6.3535770223        4.2334472933        1.4426348152


