%mem=14GB
%chk=checkpoint.chk
%nprocshared=16
#P B3LYP/6-311+g(d) force ! ASE formatted method and basis

Gaussian input prepared by ASE

0 2
Na                5.4410112514        4.8229317801        2.7878493289
Na                3.5945569066        1.2899772752        0.0000000000
Na                3.4942356653        0.0000000000        2.7110524782
Na                3.6816398691        2.7114314080        3.9898300405
Na                5.7077756890        3.4102257609        0.1570779837
Na                2.9920828771        3.9138310140        1.3250714717
Na                0.0000000000        4.0935967526        1.4469873380


