%mem=14GB
%chk=checkpoint.chk
%nprocshared=16
#P B3LYP/6-311+g(d) force ! ASE formatted method and basis

Gaussian input prepared by ASE

0 2
Na                1.5958751259        2.7651413194        2.7330559331
Na                2.9210391257        5.4329296489        2.4225756312
Na                0.0000000000        1.8457227117        0.3638416759
Na                2.2437551019        3.7994385576        0.0000000000
Na                5.1390884597        0.0000000000        1.8527991163
Na                4.4568241730        2.9254375696        1.8299664357
Na                6.9359945147        3.8664832091        0.4170612740


