%mem=14GB
%chk=checkpoint.chk
%nprocshared=16
#P B3LYP/6-311+g(d) force ! ASE formatted method and basis

Gaussian input prepared by ASE

0 2
Na                3.3340127135        5.1021630364        2.7710689834
Na                3.2687884397        0.0000000000        2.9150790541
Na                0.0000000000        2.6045227874        3.8288138404
Na                2.1644036142        2.5346391162        1.7480101113
Na                4.6088063712        2.4524456379        0.0000000000
Na                4.8759400064        2.5351571054        2.9899601991
Na                7.7230151005        2.5794013431        3.9275842604


