%mem=14GB
%chk=checkpoint.chk
%nprocshared=16
#P B3LYP/6-311+g(d) force ! ASE formatted method and basis

Gaussian input prepared by ASE

0 2
Na                2.9643806626        2.3958197062        3.0064923790
Na                2.5152797547        5.0248824918        1.6301986622
Na                0.0443949212        1.6670631923        2.9906452508
Na                0.0000000000        1.9320112447        0.0000000000
Na                2.9468957111        2.5218641411        0.0249207291
Na                5.5629982120        2.4047989711        1.4980994838
Na                3.7990440042        0.0000000000        1.4049449517


