%mem=14GB
%chk=checkpoint.chk
%nprocshared=16
#P B3LYP/6-311+g(d) force ! ASE formatted method and basis

Gaussian input prepared by ASE

0 2
Na                2.5082402700        2.2394204036        0.0000000000
Na                2.6307810604        4.9143549265        1.3959025070
Na                0.8332869728        0.1455148727        1.3954481306
Na                0.0000000000        3.1815408410        1.3932845510
Na                3.9826776854        0.0000000000        1.3937503339
Na                2.5078723939        2.2377731060        2.7872895161
Na                5.0917493001        2.9477479817        1.3944945292


