%mem=14GB
%chk=checkpoint.chk
%nprocshared=16
#P B3LYP/6-311+g(d) force ! ASE formatted method and basis

Gaussian input prepared by ASE

0 2
Na                4.5142356496        3.3134397486        0.7405878010
Na                2.8603058153        1.9067164262        2.8090192234
Na                0.0000000000        1.2586582542        2.1860057899
Na                1.8598706427        2.1324472892        0.0000000000
Na                4.1826107135        0.3361296147        0.6197323393
Na                7.0458130296        0.0000000000        1.4719438534
Na                7.2043972863        2.9461863710        2.0283549306


