%mem=14GB
%chk=checkpoint.chk
%nprocshared=16
#P B3LYP/6-311+g(d) force ! ASE formatted method and basis

Gaussian input prepared by ASE

0 2
Na                4.1244396893        0.0000000000        1.0028071825
Na                2.6805802263        2.6133072509        1.3341861162
Na                0.0000000000        2.3654935223        0.0000000000
Na                0.6708272466        4.8234481398        1.5731389972
Na                3.2382409278        5.2928122810        0.1009624983
Na                5.3053064049        3.9931541833        1.8348694780
Na                7.8359816095        3.7230093414        0.2469076061


