%mem=14GB
%chk=checkpoint.chk
%nprocshared=16
#P B3LYP/6-311+g(d) force ! ASE formatted method and basis

Gaussian input prepared by ASE

0 2
Na                1.9438945415        3.2017348144        0.0000000000
Na                1.8049968097        0.0000000000        2.3677434870
Na                0.0000000000        2.3808593464        2.1296582528
Na                1.9510462481        3.5702563631        4.0674139233
Na                6.0872249868        0.2731286903        2.1396348652
Na                3.8164142953        2.2269409675        2.1373744243
Na                5.7254545986        4.5382234111        2.1423102648


