%mem=14GB
%chk=checkpoint.chk
%nprocshared=16
#P B3LYP/6-311+g(d) force ! ASE formatted method and basis

Gaussian input prepared by ASE

0 2
Na                2.4565707895        3.6139572777        1.9808238667
Na                2.0678661178        1.5239716491        3.7028659718
Na                6.4234538979        1.7385959471        1.8863099010
Na                3.6476543392        1.2170372834        1.5069702136
Na                0.0000000000        2.5236303824        2.2131441912
Na                1.5137479640        1.9826233370        0.0000000000
Na                0.9118586772        0.0000000000        1.7658561952


