%mem=14GB
%chk=checkpoint.chk
%nprocshared=16
#P B3LYP/6-311+g(d) force ! ASE formatted method and basis

Gaussian input prepared by ASE

0 2
Na                5.3613506974        2.6864552779        2.5846177130
Na                2.6697601672        3.8294974534        1.8861691808
Na                0.0000000000        3.5494238010        0.5536438820
Na                1.6454949434        1.1137572930        1.1316235052
Na                4.3822068184        0.0000000000        1.6728142547
Na                6.3474466001        1.5298586945        0.0000000000
Na                7.2530897185        4.2544800308        0.8629129910


