%mem=14GB
%chk=checkpoint.chk
%nprocshared=16
#P B3LYP/6-311+g(d) force ! ASE formatted method and basis

Gaussian input prepared by ASE

0 2
Na                2.6101972550        2.0307681501        3.2241430723
Na                3.6095863075        1.6279304267        0.0000000000
Na                5.2605341269        2.9509170375        2.1376540235
Na                4.3965092778        0.2696935946        2.2054717546
Na                2.3870111059        3.7619184966        1.1482060744
Na                1.6312563171        0.0000000000        1.3856967173
Na                0.0000000000        2.3298082978        1.9876902704


