%mem=14GB
%chk=checkpoint.chk
%nprocshared=16
#P B3LYP/6-311+g(d) force ! ASE formatted method and basis

Gaussian input prepared by ASE

0 2
Na                1.9238095499        0.0000000000        0.0000000000
Na                2.0600939068        5.4212467274        0.7418556670
Na                0.0000000000        3.3939916254        1.4785334428
Na                2.4593650298        0.1371273378        2.9387843245
Na                2.8824366771        2.5718384956        1.2309844578
Na                5.5804550285        1.9339308018        0.0663608482
Na                5.3792472630        3.7438107022        2.4325849047


