%mem=14GB
%chk=checkpoint.chk
%nprocshared=16
#P B3LYP/6-311+g(d) force ! ASE formatted method and basis

Gaussian input prepared by ASE

0 2
Na                4.7910859163        1.9253354227        0.2108466888
Na                1.4375495297        2.0957737989        2.6407865584
Na                0.0000000000        0.0000000000        1.2092266668
Na                2.0612069511        1.6711945672        0.0000000000
Na                3.5086258575        3.7298876139        1.8512504070
Na                3.7836970477        0.6731646114        2.4377054771
Na                6.5678454063        0.1847687696        1.7322711115


