%mem=14GB
%chk=checkpoint.chk
%nprocshared=16
#P B3LYP/6-311+g(d) force ! ASE formatted method and basis

Gaussian input prepared by ASE

0 2
Na                4.4307509118        2.6743868430        2.8727321283
Na                0.9822741032        0.0000000000        1.6412299751
Na                0.0000000000        4.5938540036        1.7025720664
Na                2.1577646787        2.6649016810        0.9083063113
Na                4.9363158664        3.3476830119        0.0000000000
Na                6.2227716559        0.9252651942        1.2182101409
Na                7.1278994699        3.6675568463        2.0203985099


