%mem=14GB
%chk=checkpoint.chk
%nprocshared=16
#P B3LYP/6-311+g(d) force ! ASE formatted method and basis

Gaussian input prepared by ASE

0 2
Na                3.2019288039        5.6174347959        1.5668287273
Na                1.7099672616        0.0000000000        3.0511830965
Na                0.0000000000        3.0167004684        0.6165295604
Na                2.5267094240        2.7653874331        2.2163567471
Na                7.9233824446        3.6098527199        2.1080460061
Na                5.4234128273        1.9750411412        2.3074758195
Na                5.7905546563        0.0976828427        0.0000000000


