%mem=14GB
%chk=checkpoint.chk
%nprocshared=16
#P B3LYP/6-311+g(d) force ! ASE formatted method and basis

Gaussian input prepared by ASE

0 2
Na                0.0656789991        2.2991011525        1.9224599976
Na                6.4886360708        1.1145826707        0.5404734208
Na                0.0000000000        0.0000000000        0.0000000000
Na                2.1762242515        0.1710368585        2.0492578017
Na                4.2931767347        2.2935692156        2.2087501722
Na                2.1522918341        4.3814211182        2.4961365096
Na                2.2427807980        6.1147295925        0.0490698958


