%mem=14GB
%chk=checkpoint.chk
%nprocshared=16
#P B3LYP/6-311+g(d) force ! ASE formatted method and basis

Gaussian input prepared by ASE

0 2
Na                5.9837831337        0.1396473207        1.0740975151
Na                0.3490496704        0.0000000000        1.0120278263
Na                0.0000000000        4.9502325959        1.8647759338
Na                0.8800079703        2.7730748181        0.0000000000
Na                3.1441537601        1.0945122253        1.0353399272
Na                5.3087512120        2.8688343756        2.1178944579
Na                5.9267883640        5.1133232025        0.2233171228


