%mem=14GB
%chk=checkpoint.chk
%nprocshared=16
#P B3LYP/6-311+g(d) force ! ASE formatted method and basis

Gaussian input prepared by ASE

0 2
Na                4.8655073375        0.0000000000        1.6925374423
Na                2.1422934796        0.3989273485        1.7266840009
Na                0.0000000000        2.2649168121        1.7040726871
Na                2.5702504376        3.4701938946        1.7315039648
Na                5.4027752830        3.6542954702        1.6982815785
Na                4.0322809080        1.8377703597        0.0000000000
Na                4.0731046177        1.8264215053        3.4169188925


