%mem=14GB
%chk=checkpoint.chk
%nprocshared=16
#P B3LYP/6-311+g(d) force ! ASE formatted method and basis

Gaussian input prepared by ASE

0 2
Na                2.3993955331        2.9170528027        0.3517877998
Na                2.5750917289        2.2822424175        3.0355726747
Na                0.0000000000        2.1688314851        1.7547977584
Na                1.8265891521        0.0000000000        1.2380905247
Na                4.3689426634        1.0100490071        0.0000000000
Na                4.5492924741        0.3775785960        2.6834097531
Na                5.1159378306        3.2972972463        1.7983864426


