%mem=14GB
%chk=checkpoint.chk
%nprocshared=16
#P B3LYP/6-311+g(d) force ! ASE formatted method and basis

Gaussian input prepared by ASE

0 2
Na                4.8588960482        0.2833657873        0.7640101074
Na                6.2632098591        2.8237345257        0.0000000000
Na                7.6638886657        0.7883160743        1.6982242065
Na                5.3891881396        2.3795562554        2.8345456633
Na                2.5624733970        1.7169336919        2.0630604774
Na                0.2448725556        0.0000000000        1.2362738936
Na                0.0000000000        2.9890024843        1.1563777512


