%mem=14GB
%chk=checkpoint.chk
%nprocshared=16
#P B3LYP/6-311+g(d) force ! ASE formatted method and basis

Gaussian input prepared by ASE

0 2
Na                2.8872544867        0.6512069312        0.7646906151
Na                0.7562882056        2.6132037208        0.0000000000
Na                0.0000000000        0.0000000000        1.2674166177
Na                1.3621450263        2.1219118400        2.8915073338
Na                3.3444761121        3.5813676740        1.1731366731
Na                5.5270303846        1.6220735191        1.8213777566
Na                8.3622072048        1.1483470027        0.9680536732


