%mem=14GB
%chk=checkpoint.chk
%nprocshared=16
#P B3LYP/6-311+g(d) force ! ASE formatted method and basis

Gaussian input prepared by ASE

0 2
Na                5.1975001414        3.1394730489        0.0089959852
Na                5.3903622027        2.8377889887        2.9743935171
Na                2.6069637062        0.0000000000        1.7598372807
Na                2.7590151229        6.0093658060        1.9020093080
Na                2.6963634044        3.0094598978        1.6611225118
Na                0.0000000000        3.0814512504        2.9801751543
Na                0.2005931926        3.0598732617        0.0000000000


