%mem=14GB
%chk=checkpoint.chk
%nprocshared=16
#P B3LYP/6-311+g(d) force ! ASE formatted method and basis

Gaussian input prepared by ASE

0 2
Na                2.4572564286        0.0000000000        1.5671765774
Na                2.4564449068        2.0343407755        3.1298591263
Na                4.0114470589        3.5751788312        1.5657973709
Na                0.8989048432        3.5737837840        1.5650132734
Na                4.9159093927        0.9288626872        1.5657621661
Na                2.4561693239        2.0312938133        0.0000000000
Na                0.0000000000        0.9261939412        1.5664354404


