%mem=14GB
%chk=checkpoint.chk
%nprocshared=16
#P B3LYP/6-311+g(d) force ! ASE formatted method and basis

Gaussian input prepared by ASE

0 2
Na                3.3509354011        2.1675999746        0.0000000000
Na                2.6501571596        0.0000000000        1.9358147316
Na                0.5026337053        1.2481104091        0.2547717912
Na                0.0000000000        3.0479730302        2.6102636419
Na                5.3720159170        1.2332109878        2.0078329779
Na                2.9872898933        2.8262648972        2.9003651064
Na                3.5921098397        5.0072564846        0.9300335614


