%mem=14GB
%chk=checkpoint.chk
%nprocshared=16
#P B3LYP/6-311+g(d) force ! ASE formatted method and basis

Gaussian input prepared by ASE

0 2
Na                2.7454542644        0.6157393263        1.3420280093
Na                3.1107022334        4.0022802219        2.5539153304
Na                0.0000000000        0.0000000000        1.9496407520
Na                0.8529364388        2.7412822658        1.3480901772
Na                3.5355145978        3.1072944226        0.0000000000
Na                4.4218677691        1.6934405647        3.2177282919
Na                5.6786928420        0.1406767405        1.1734542343


