%mem=14GB
%chk=checkpoint.chk
%nprocshared=16
#P B3LYP/6-311+g(d) force ! ASE formatted method and basis

Gaussian input prepared by ASE

0 2
Na                2.7994261218        0.2483065663        0.0000000000
Na                2.2844361076        0.1249049213        2.9537556330
Na                0.0000000000        0.0000000000        1.0203801037
Na                1.0479335498        2.6816619567        0.1970118565
Na                2.8969897063        3.0401400935        2.5377487388
Na                5.0592367634        2.1112002187        0.6702742603
Na                7.5116918948        0.4615260599        1.1461048632


