%mem=14GB
%chk=checkpoint.chk
%nprocshared=16
#P B3LYP/6-311+g(d) force ! ASE formatted method and basis

Gaussian input prepared by ASE

0 2
Na                7.4755228205        1.3687530166        0.0000000000
Na                0.0000000000        0.1134802692        2.3605986639
Na                2.2643736253        4.2856770476        1.7902271857
Na                2.0001606761        1.5310361223        0.6303564652
Na                4.7661585370        0.3875084994        0.8374670974
Na                7.1312867506        0.0000000000        2.6429149645
Na                8.4761685763        2.6789586703        2.5068438991


