%mem=14GB
%chk=checkpoint.chk
%nprocshared=16
#P B3LYP/6-311+g(d) force ! ASE formatted method and basis

Gaussian input prepared by ASE

0 2
Na                4.3850988243        1.9671528892        3.6227666471
Na                5.6240140103        0.0000000000        2.0510429616
Na                7.0036098469        2.7705114780        2.1367812804
Na                4.1826844632        3.9343356563        1.6310179961
Na                4.9569729927        1.7901835542        0.0000000000
Na                2.7308207932        1.1389092917        1.5418201350
Na                0.0000000000        2.0846867392        1.9629387815


