%mem=14GB
%chk=checkpoint.chk
%nprocshared=16
#P B3LYP/6-311+g(d) force ! ASE formatted method and basis

Gaussian input prepared by ASE

0 2
Na                4.3144955948        2.6326830345        0.0000000000
Na                4.8407574467        0.0000000000        1.3512672909
Na                0.0000000000        3.0862427150        1.5137711912
Na                2.5333780348        1.6638390601        2.2234265838
Na                5.2561069846        2.1590894028        3.4037223847
Na                7.0293924816        3.1517471280        1.1852338303
Na                4.7116197595        4.7922990849        2.0565077657


