%mem=14GB
%chk=checkpoint.chk
%nprocshared=16
#P B3LYP/6-311+g(d) force ! ASE formatted method and basis

Gaussian input prepared by ASE

0 2
Na                4.9837701952        2.4118278658        0.0000000000
Na                6.2407733383        2.7750711927        2.4089536386
Na                0.0000000000        1.9005298904        1.8770595464
Na                2.8219445254        1.6280099745        1.4962699955
Na                5.2879351788        0.0000000000        1.8873692847
Na                4.0847831711        1.9876285963        3.9047712970
Na                3.7804441208        4.4026111252        2.0169994190


