%mem=14GB
%chk=checkpoint.chk
%nprocshared=16
#P B3LYP/6-311+g(d) force ! ASE formatted method and basis

Gaussian input prepared by ASE

0 2
Na                2.9135565659        0.0000000000        1.1626050566
Na                0.0000000000        0.1996340443        0.4866917778
Na                0.0714628422        4.7239537119        1.0747006014
Na                1.8217867780        2.5359896176        0.0000000000
Na                4.6782562916        2.4147020537        0.9226464696
Na                7.3347327505        3.7629004420        0.5663473454
Na                7.1813414431        0.7739087806        0.6690616126


