%mem=14GB
%chk=checkpoint.chk
%nprocshared=16
#P B3LYP/6-311+g(d) force ! ASE formatted method and basis

Gaussian input prepared by ASE

0 2
Na                2.3473138253        0.4568183622        0.0000000000
Na                0.9937363792        3.1219126194        0.0013059815
Na                6.3656399358        2.3427263637        1.5691628389
Na                3.3896185376        2.6571896407        1.7541838813
Na                0.7959264396        3.6059686605        2.9429018641
Na                2.6224168997        0.0000000000        2.9397080521
Na                0.0000000000        0.9402060026        1.8079605683


