%mem=14GB
%chk=checkpoint.chk
%nprocshared=16
#P B3LYP/6-311+g(d) force ! ASE formatted method and basis

Gaussian input prepared by ASE

0 2
Na                4.2663501292        1.4877028657        3.5366426477
Na                2.5589808097        2.9736161005        1.5528311121
Na                0.0000000000        1.4878582827        2.0109282145
Na                2.5588247742        0.0037506095        1.5514106789
Na                4.6649058152        1.4890528408        0.0000000000
Na                6.3677545390        0.0000000000        1.9814188668
Na                6.3698970578        2.9748277541        1.9820140810


