%mem=14GB
%chk=checkpoint.chk
%nprocshared=16
#P B3LYP/6-311+g(d) force ! ASE formatted method and basis

Gaussian input prepared by ASE

0 2
Na                2.7371912961        1.9634636317        3.6225129456
Na                2.7371316831        1.9646378246        0.0000000000
Na                4.6746930291        0.5333367829        1.8106149981
Na                4.6915839787        3.3803075643        1.8118296639
Na                1.8851929526        0.0000000000        1.8106466163
Na                1.9083339474        3.9348990809        1.8108480242
Na                0.0000000000        1.9772554665        1.8115426528


