%mem=14GB
%chk=checkpoint.chk
%nprocshared=16
#P B3LYP/6-311+g(d) force ! ASE formatted method and basis

Gaussian input prepared by ASE

0 2
Na                2.6553672704        2.4491769923        0.0000000000
Na                4.8779475507        3.9185731178        1.4497061298
Na                4.8824267254        0.9877471846        1.4472212196
Na                2.6569925480        2.4494799802        2.8961445348
Na                1.6124679125        0.0000000000        1.4489213348
Na                0.0000000000        2.4484923408        1.4496387968
Na                1.6074601230        4.8993809045        1.4472561041


