%mem=14GB
%chk=checkpoint.chk
%nprocshared=16
#P B3LYP/6-311+g(d) force ! ASE formatted method and basis

Gaussian input prepared by ASE

0 2
Na                2.6738647097        2.2682124794        3.6780769377
Na                2.6653892756        1.7559186397        0.0000000000
Na                4.5112051793        0.6228922377        2.0386456743
Na                4.5084108679        3.4053584345        1.6303365873
Na                1.7758033152        0.0000000000        1.9371216359
Na                1.7710068556        4.0274241234        1.7513535337
Na                0.0000000000        2.0097519804        1.8354001057


