%mem=14GB
%chk=checkpoint.chk
%nprocshared=16
#P B3LYP/6-311+g(d) force ! ASE formatted method and basis

Gaussian input prepared by ASE

0 2
Na                8.1340047385        0.0000000000        2.4302124144
Na                8.2844238233        1.7501078952        0.0000000000
Na                9.9166423493        2.4129352646        2.4271202146
Na                6.9343954094        2.7485062242        2.4849252772
Na                3.9843373387        3.2391754147        2.2261629398
Na                1.0678192374        3.0375964856        1.5537244791
Na                0.0000000000        0.2622981113        1.9560076093


