%mem=14GB
%chk=checkpoint.chk
%nprocshared=16
#P B3LYP/6-311+g(d) force ! ASE formatted method and basis

Gaussian input prepared by ASE

0 2
Na                3.6807978046        2.6826180732        1.6530325820
Na                6.5908099922        2.3668717167        2.3139619867
Na                5.4063318648        0.8755682267        0.0000000000
Na                2.6483236899        0.0000000000        0.7804609135
Na                0.0000000000        0.9591235743        1.8230912718
Na                0.9283688756        3.6904470145        0.9934895147
Na                3.3037702200        5.4795640936        0.6344695892


