%mem=14GB
%chk=checkpoint.chk
%nprocshared=16
#P B3LYP/6-311+g(d) force ! ASE formatted method and basis

Gaussian input prepared by ASE

0 2
Na                2.9562268428        2.8772646387        1.1669445436
Na                5.3488975395        3.1586778112        2.9589875995
Na                5.6668317989        3.4464934745        0.0000000000
Na                6.3146213712        0.8317022754        1.3279075360
Na                3.5404868944        0.0000000000        0.5232978149
Na                1.0575517784        0.7287136407        2.0345183603
Na                0.0000000000        3.2905695226        0.8961172861


