%mem=14GB
%chk=checkpoint.chk
%nprocshared=16
#P B3LYP/6-311+g(d) force ! ASE formatted method and basis

Gaussian input prepared by ASE

0 2
Na                3.9759931799        2.7910600434        0.1633657893
Na                2.0738754052        5.1094302091        0.0000000000
Na                6.5471914928        3.6570620319        1.4413828786
Na                3.9448096328        4.8444409857        2.3331388686
Na                0.0000000000        3.5897945047        1.5524161335
Na                2.4441747656        2.2637802888        2.6900160750
Na                3.1191474836        0.0000000000        0.8442456372


