%mem=14GB
%chk=checkpoint.chk
%nprocshared=16
#P B3LYP/6-311+g(d) force ! ASE formatted method and basis

Gaussian input prepared by ASE

0 2
Na                2.3366522049        0.0000000000        0.9617618950
Na                2.6693241954        1.7423649084        3.1831133480
Na                0.0000000000        1.4919317646        1.9602222596
Na                2.1439760525        3.1419477917        0.7860659006
Na                4.4183844557        1.6644825980        0.0000000000
Na                4.9123432577        3.2415950622        2.2941793073
Na                5.1838666290        0.1209743918        2.2637764991


