%mem=14GB
%chk=checkpoint.chk
%nprocshared=16
#P B3LYP/6-311+g(d) force ! ASE formatted method and basis

Gaussian input prepared by ASE

0 2
Na                3.8981521060        2.7193137938        0.5894221359
Na                4.0920804275        0.5331638312        2.6379176122
Na                6.8461105038        3.1865323441        0.2976699690
Na                5.7398398962        0.4042363580        0.1402619821
Na                2.7695914972        0.0000000000        0.0000000000
Na                0.0000000000        1.1533022199        0.1695459060
Na                1.1302549132        3.7852501865        1.0676749086


