%mem=14GB
%chk=checkpoint.chk
%nprocshared=16
#P B3LYP/6-311+g(d) force ! ASE formatted method and basis

Gaussian input prepared by ASE

0 2
Na                3.2940686807        1.8566152793        2.8295065553
Na                4.6663977344        0.0000000000        1.0686206983
Na                4.6622721579        3.7157831910        1.0676413348
Na                2.7138194877        1.8556228519        0.0000000000
Na                1.1458686500        0.3047321237        2.2004953668
Na                0.0000000000        1.8553492134        0.2946082265
Na                1.1471873918        3.4105795760        2.1993141346


