%mem=14GB
%chk=checkpoint.chk
%nprocshared=16
#P B3LYP/6-311+g(d) force ! ASE formatted method and basis

Gaussian input prepared by ASE

0 2
Na                3.7035225243        2.0753976679        0.0418775039
Na                0.7027025586        2.0420176794        0.0000000000
Na                0.0579330109        0.0000000000        2.1023375962
Na                0.0000000000        2.9218710631        2.7789736880
Na                2.1585962616        4.3426987968        1.2535783848
Na                4.5599695390        3.2346657291        2.6728302576
Na                5.4075144729        0.4598010914        1.9104531583


