%mem=14GB
%chk=checkpoint.chk
%nprocshared=16
#P B3LYP/6-311+g(d) force ! ASE formatted method and basis

Gaussian input prepared by ASE

0 2
Na                2.9123086401        2.6329671618        0.0000000000
Na                3.1704965880        0.0000000000        1.4243328037
Na                7.5155275660        2.8156751557        0.7924103403
Na                4.9278929339        2.2788851697        2.2011355506
Na                2.3019226127        5.1158160363        1.5813042180
Na                1.9822474901        2.3857303318        2.8082639432
Na                0.0000000000        2.1293728245        0.5599613580


