%mem=14GB
%chk=checkpoint.chk
%nprocshared=16
#P B3LYP/6-311+g(d) force ! ASE formatted method and basis

Gaussian input prepared by ASE

0 2
Na                3.9081716552        2.0760683980        0.0000000000
Na                2.3484385990        4.2746188460        1.3178915802
Na                5.3422977795        4.2370397563        1.5020109568
Na                6.7684034666        1.6945661297        0.7909019621
Na                4.6274637681        0.0000000000        2.0379784121
Na                1.8585264205        0.0686110930        0.8799966694
Na                0.0000000000        2.4034347241        1.2275107720


