%mem=14GB
%chk=checkpoint.chk
%nprocshared=16
#P B3LYP/6-311+g(d) force ! ASE formatted method and basis

Gaussian input prepared by ASE

0 2
Na                3.1060386186        2.4861193551        2.8163898347
Na                1.2685451741        4.5900569478        1.3364925158
Na                5.4706259102        2.4408213289        1.0911858277
Na                2.7484931380        2.6128650307        0.0338800237
Na                0.2966693089        2.4012596668        2.7689582823
Na                0.0000000000        2.0312991843        0.0000000000
Na                1.8139532668        0.0000000000        1.4783622712


