%mem=14GB
%chk=checkpoint.chk
%nprocshared=16
#P B3LYP/6-311+g(d) force ! ASE formatted method and basis

Gaussian input prepared by ASE

0 2
Na                2.9818251771        2.6242848990        0.2931129091
Na                1.4953875374        4.4403409974        2.1657895601
Na                0.0000000000        2.4502294500        0.5011566962
Na                1.6721508112        0.0000000000        0.9285898502
Na                4.6448189299        0.2799193883        1.1730386914
Na                7.0060337645        2.0909563553        1.5674682236
Na                5.5315856004        4.1855580005        0.0000000000


