%mem=14GB
%chk=checkpoint.chk
%nprocshared=16
#P B3LYP/6-311+g(d) force ! ASE formatted method and basis

Gaussian input prepared by ASE

0 2
Na                2.0821779794        2.3598076382        0.0000000000
Na                3.0466564228        2.5994792672        2.6060298423
Na                5.7937870261        1.8512442390        2.0493115008
Na                3.6986256154        0.0000000000        1.2665675414
Na                0.9438160737        0.0158469216        0.9648465384
Na                1.6759513826        0.3923640047        3.6168948704
Na                0.0000000000        2.6194608347        2.2733948787


