%mem=14GB
%chk=checkpoint.chk
%nprocshared=16
#P B3LYP/6-311+g(d) force ! ASE formatted method and basis

Gaussian input prepared by ASE

0 2
Na                2.7486353193        0.6867372956        0.1400526153
Na                3.3290675638        1.0914470356        3.0563258717
Na                5.5654990335        1.1263338171        1.0626944342
Na                3.5984450367        3.3843810696        1.1603741962
Na                1.0102302926        2.9543622354        2.6299644245
Na                0.6777104002        0.0000000000        2.2052498598
Na                0.0000000000        1.9011077966        0.0000000000


