%mem=14GB
%chk=checkpoint.chk
%nprocshared=16
#P B3LYP/6-311+g(d) force ! ASE formatted method and basis

Gaussian input prepared by ASE

0 2
Na                2.2421556732        1.8608877710        0.0000000000
Na                3.5133349668        3.7108021433        2.0068711465
Na                5.2053128407        1.8623821887        0.3804530554
Na                3.5146779463        0.0094889943        2.0060968053
Na                0.0028585910        0.0000000000        0.7715608809
Na                1.2657276970        1.8591646747        2.7744980004
Na                0.0000000000        3.7201881923        0.7731068395


