%mem=14GB
%chk=checkpoint.chk
%nprocshared=16
#P B3LYP/6-311+g(d) force ! ASE formatted method and basis

Gaussian input prepared by ASE

0 2
Na                2.5455158412        2.7204122771        0.3824883438
Na                4.4129853645        2.4008088584        2.7137305216
Na                6.9832000019        3.3554988534        1.4948309351
Na                5.2272845903        1.4312883726        0.0000000000
Na                3.0686942770        0.0000000000        1.5183545408
Na                0.2929587189        1.1434381742        1.5785379526
Na                0.0000000000        4.1003239706        1.1697112535


