%mem=14GB
%chk=checkpoint.chk
%nprocshared=16
#P B3LYP/6-311+g(d) force ! ASE formatted method and basis

Gaussian input prepared by ASE

0 2
Na                2.8803012495        2.5334416757        0.0000000000
Na                3.1564783187        0.0000000000        1.6037466852
Na                5.8754708450        2.7096428136        0.1124707458
Na                4.2318323633        3.8553615093        2.3349818352
Na                1.6385092582        2.3621726479        2.6853067438
Na                0.7683537665        4.5257588241        0.7906219437
Na                0.0000000000        1.7035023846        0.2504525639


