%mem=14GB
%chk=checkpoint.chk
%nprocshared=16
#P B3LYP/6-311+g(d) force ! ASE formatted method and basis

Gaussian input prepared by ASE

0 2
Na                2.9955442811        2.6566917549        2.8379363136
Na                0.8010408466        1.4680970648        0.0000000000
Na                1.4659991985        4.2811969865        0.8214070578
Na                0.0000000000        2.4915426878        2.7088988768
Na                1.6346438358        0.0000000000        2.4830992970
Na                3.7056403603        0.8850352724        0.5162148704
Na                5.8108603571        2.5786979231        1.8141682214


