%mem=14GB
%chk=checkpoint.chk
%nprocshared=16
#P B3LYP/6-311+g(d) force ! ASE formatted method and basis

Gaussian input prepared by ASE

0 2
Na                2.9055201604        2.6463897522        0.0000000000
Na                1.9185580033        4.1524766971        2.4022652796
Na                0.0000000000        3.3722962480        0.2418433555
Na                0.2282872096        1.6901588142        2.7170790223
Na                2.2395803606        0.0000000000        1.2562699791
Na                4.9765394785        1.1741039671        1.5930271474
Na                4.8357387201        4.1662485889        1.7103178491


