%mem=14GB
%chk=checkpoint.chk
%nprocshared=16
#P B3LYP/6-311+g(d) force ! ASE formatted method and basis

Gaussian input prepared by ASE

0 2
Na                3.9445220329        3.4562146372        2.8049094225
Na                2.3538947646        4.5480149120        0.5107957929
Na                0.0000000000        2.9764573837        1.5090365602
Na                1.9802963335        1.1790165263        2.8694176495
Na                3.2906582506        0.0000000000        0.4388864169
Na                4.6241222595        2.6530575808        0.0000000000
Na                6.7700446718        2.7659284278        2.0884110954


