%mem=14GB
%chk=checkpoint.chk
%nprocshared=16
#P B3LYP/6-311+g(d) force ! ASE formatted method and basis

Gaussian input prepared by ASE

0 2
Na                3.7288880188        3.6329757723        0.0000000000
Na                5.0434717798        0.7568708266        4.1928348753
Na                0.0000000000        2.1660967342        2.8001475325
Na                2.9746873445        2.1797031094        2.5255159512
Na                3.9886145343        0.0000000000        0.7178311453
Na                5.7895606225        2.2133202476        1.6689710122
Na                4.7780903065        4.3898315016        3.4794837212


