%mem=14GB
%chk=checkpoint.chk
%nprocshared=16
#P B3LYP/6-311+g(d) force ! ASE formatted method and basis

Gaussian input prepared by ASE

0 2
Na                2.3911652994        4.4538660873        0.2298192356
Na                0.9517805072        3.5406110971        2.6993465966
Na                0.0000000000        2.6617210643        0.0000000000
Na                1.2865874735        0.0000000000        0.5229673108
Na                2.9479952800        1.2951648736        2.6617338854
Na                4.8461066844        3.3393977742        1.5517133197
Na                7.3437590724        2.0263420618        0.5506435803


