%mem=14GB
%chk=checkpoint.chk
%nprocshared=16
#P B3LYP/6-311+g(d) force ! ASE formatted method and basis

Gaussian input prepared by ASE

0 2
Na                3.6282248775        0.0000000000        0.8207544202
Na                6.5899410283        0.0380624034        0.3458498470
Na                6.4187941836        5.2097582696        1.2658108051
Na                5.0765101047        2.6155287957        0.5852031191
Na                3.5876868526        1.9363512892        3.1048478810
Na                1.0478456923        1.3000865104        1.6368467676
Na                0.0000000000        3.5856967572        0.0000000000


