%mem=14GB
%chk=checkpoint.chk
%nprocshared=16
#P B3LYP/6-311+g(d) force ! ASE formatted method and basis

Gaussian input prepared by ASE

0 2
Na                4.4589579713        0.9226901796        0.0000000000
Na                4.9722952695        0.4411824735        2.9172142880
Na                7.1601306536        0.0000000000        0.9229849057
Na                7.0833699793        2.5399193637        2.5196962102
Na                4.9573457703        3.7773387697        0.7876979015
Na                2.7212998491        2.2281625382        2.0550224243
Na                0.0000000000        1.0501981057        1.6164263419


