%mem=14GB
%chk=checkpoint.chk
%nprocshared=16
#P B3LYP/6-311+g(d) force ! ASE formatted method and basis

Gaussian input prepared by ASE

0 2
Na                1.9440866492        4.3320881988        0.8286117693
Na                0.0000000000        3.0054060114        2.6727834151
Na                0.6025084095        1.7769006752        0.0000000000
Na                2.5151798002        0.0000000000        1.4864339763
Na                2.9464820451        2.5492928632        3.0200296960
Na                4.8757471123        3.7571941347        1.0648954483
Na                7.3117015881        2.0710410937        1.5216291374


