%mem=14GB
%chk=checkpoint.chk
%nprocshared=16
#P B3LYP/6-311+g(d) force ! ASE formatted method and basis

Gaussian input prepared by ASE

0 2
Na                2.9464805413        2.8220055193        1.1050808949
Na                5.6475100862        3.5453662187        0.0000000000
Na                4.4157776384        2.8295511240        3.7290506044
Na                6.3108127777        1.3440548635        1.9323230299
Na                3.9046275668        0.0000000000        0.7376146524
Na                1.1143102225        0.5257312785        1.6811356931
Na                0.0000000000        3.2844520717        1.3612207784


