%mem=14GB
%chk=checkpoint.chk
%nprocshared=16
#P B3LYP/6-311+g(d) force ! ASE formatted method and basis

Gaussian input prepared by ASE

0 2
Na                2.6489026533        1.2729619610        0.0000000000
Na                3.1074859175        0.8045212520        2.6785123328
Na                5.3727822599        0.6072895601        0.8365808096
Na                4.2413552263        3.2212261232        1.4904700772
Na                1.4529779295        2.9904003339        2.3428547959
Na                0.5621529060        0.0000000000        1.9796723983
Na                0.0000000000        2.0318750482        0.1968701850


