%mem=14GB
%chk=checkpoint.chk
%nprocshared=16
#P B3LYP/6-311+g(d) force ! ASE formatted method and basis

Gaussian input prepared by ASE

0 2
Na                5.2194032243        2.1967415790        0.0000000000
Na                3.9546992449        4.5735983000        1.3427757929
Na                0.0000000000        1.8460795906        1.9763946863
Na                2.6384794531        0.9313420656        0.8952646212
Na                4.5789798404        2.0711722980        2.8935570667
Na                6.3929624136        0.0000000000        1.6846430038
Na                7.3598603300        2.7971059479        2.0213629630


