%mem=14GB
%chk=checkpoint.chk
%nprocshared=16
#P B3LYP/6-311+g(d) force ! ASE formatted method and basis

Gaussian input prepared by ASE

0 2
Na                4.1874451316        0.0000000000        1.0419429942
Na                4.3107334829        1.3151290129        3.7363686761
Na                6.9685281227        0.4124523930        0.0000000000
Na                7.1881970907        3.3943860408        0.2022593822
Na                4.9150083737        3.7738086523        2.1227844002
Na                2.9464626009        2.5961520994        0.1816856404
Na                0.0000000000        2.0740498861        0.2599564914


