%mem=14GB
%chk=checkpoint.chk
%nprocshared=16
#P B3LYP/6-311+g(d) force ! ASE formatted method and basis

Gaussian input prepared by ASE

0 2
Na                2.2916321776        2.1005898702        0.0000000000
Na                4.2587837702        0.9115362483        1.2115067097
Na                0.0000000000        1.6279170748        1.2870876334
Na                1.3500465346        3.9569912362        1.8401549324
Na                4.0254707064        3.5136344448        1.3231911248
Na                2.7623563522        2.1003660447        3.2806535814
Na                2.0513432473        0.0000000000        1.9043325142


