%mem=14GB
%chk=checkpoint.chk
%nprocshared=16
#P B3LYP/6-311+g(d) force ! ASE formatted method and basis

Gaussian input prepared by ASE

0 2
Na                9.6998185779        1.3972245041        1.0972364248
Na                7.0634174681        0.0000000000        0.8712722700
Na                8.1033979718        5.4506944107        1.1202367351
Na                7.2017259786        2.7476451730        2.0714562596
Na                4.3011088415        3.4058903331        1.6653550044
Na                1.8215318728        3.1450004648        0.0000000000
Na                0.0000000000        1.7952868213        1.9642282034


