%mem=14GB
%chk=checkpoint.chk
%nprocshared=16
#P B3LYP/6-311+g(d) force ! ASE formatted method and basis

Gaussian input prepared by ASE

0 2
Na                1.7748343545        0.7885387173        2.0333248289
Na                1.8255404127        3.1391130438        3.8831169274
Na                0.0000000000        3.1480069450        1.4998987574
Na                2.2225302805        4.5062895217        0.0000000000
Na                4.4421871289        0.0000000000        0.9300571938
Na                3.9602943929        2.8318474661        1.7934002600
Na                6.6931694845        3.9714018690        2.2592113908


