%mem=14GB
%chk=checkpoint.chk
%nprocshared=16
#P B3LYP/6-311+g(d) force ! ASE formatted method and basis

Gaussian input prepared by ASE

0 2
Na                0.2573944222        2.6160731237        0.0000000000
Na                5.2992546505        1.3200943550        2.4813778250
Na                5.2075202242        3.7520414185        0.7283894500
Na                2.6582987228        2.5784700705        1.7997453121
Na                0.4482053342        4.5514767249        2.2797047341
Na                0.0000000000        1.6390641783        2.8227463218
Na                1.4851615512        0.0000000000        0.7989391094


