%mem=14GB
%chk=checkpoint.chk
%nprocshared=16
#P B3LYP/6-311+g(d) force ! ASE formatted method and basis

Gaussian input prepared by ASE

0 2
Na                2.0411363261        1.9159858776        0.0000000000
Na                2.0420182836        1.9154633016        3.4753979086
Na                0.0000000000        0.5504936623        1.7378772949
Na                0.0897842364        3.3766444455        1.7376859502
Na                2.8511826798        3.9456143270        1.7377245042
Na                4.8197664312        2.0915690680        1.7374647382
Na                3.1020964576        0.0000000000        1.7371116425


