%mem=14GB
%chk=checkpoint.chk
%nprocshared=16
#P B3LYP/6-311+g(d) force ! ASE formatted method and basis

Gaussian input prepared by ASE

0 2
Na                5.3181155941        0.3133765628        2.9805299688
Na                5.1370688377        0.4709797894        0.0000000000
Na                7.7896112704        0.0000000000        1.3139157977
Na                6.4676638724        2.6795165840        1.5389419814
Na                3.8218953651        4.0999055169        1.4262486337
Na                2.7882365211        1.2877856296        1.6865882010
Na                0.0000000000        0.2388112460        1.3769458069


