%mem=14GB
%chk=checkpoint.chk
%nprocshared=16
#P B3LYP/6-311+g(d) force ! ASE formatted method and basis

Gaussian input prepared by ASE

0 2
Na                5.6272428244        1.9413819639        0.0000000000
Na                3.7871752384        0.0000000000        1.3459816203
Na                7.0711835610        3.3914981503        2.1934121970
Na                5.0162960066        4.8170865078        0.5413646489
Na                2.8209753417        2.7656710542        0.6766379537
Na                0.0000000000        1.9197458874        1.2746024573
Na                0.7161312430        4.8258685314        1.2777407032


