%mem=14GB
%chk=checkpoint.chk
%nprocshared=16
#P B3LYP/6-311+g(d) force ! ASE formatted method and basis

Gaussian input prepared by ASE

0 2
Na                2.5402865081        1.6263779531        0.3170557160
Na                0.0000000000        0.0576741526        0.0000000000
Na                2.1209468821        4.5967887989        0.4065275442
Na                1.8292202895        2.9648330641        2.9059401569
Na                1.4833097886        0.0000000000        2.6047882256
Na                4.2343250602        1.1801299729        2.7514956848
Na                5.3675941434        0.6566247942        0.0224013494


