%mem=14GB
%chk=checkpoint.chk
%nprocshared=16
#P B3LYP/6-311+g(d) force ! ASE formatted method and basis

Gaussian input prepared by ASE

0 2
Na                4.9096772561        2.3662560953        0.0000000000
Na                4.8502839186        3.9489126404        2.5475698075
Na                7.2281329749        2.2407475938        1.8902392861
Na                5.2296759743        0.0000000000        1.8117361840
Na                2.8227996728        1.7837367522        2.0689616441
Na                0.6098322405        3.6728914616        1.3249801310
Na                0.0000000000        0.7901908273        1.8571855443


