%mem=14GB
%chk=checkpoint.chk
%nprocshared=16
#P B3LYP/6-311+g(d) force ! ASE formatted method and basis

Gaussian input prepared by ASE

0 2
Na                0.2508711073        1.1751369082        0.2111153844
Na                0.2439204714        4.1759294527        0.1914861280
Na                5.5220541478        3.3330846408        1.5676197613
Na                2.6047024906        2.6807560946        1.2968093862
Na                0.0000000000        2.6905295946        2.7860859010
Na                1.6512229006        0.1915906042        2.6714568564
Na                3.0019034705        0.0000000000        0.0000000000


