%mem=14GB
%chk=checkpoint.chk
%nprocshared=16
#P B3LYP/6-311+g(d) force ! ASE formatted method and basis

Gaussian input prepared by ASE

0 2
Na                2.8942971253        1.7942253983        0.0000000000
Na                3.0750272086        4.6943236550        0.8190081569
Na                0.0000000000        1.3805461917        0.5476717856
Na                1.6941750615        2.7788447474        2.5664372438
Na                3.8543312674        0.0000000000        2.2349988616
Na                4.7071946076        2.8712292485        2.5653287141
Na                5.9056058237        1.7818778644        0.0198810549


