%mem=14GB
%chk=checkpoint.chk
%nprocshared=16
#P B3LYP/6-311+g(d) force ! ASE formatted method and basis

Gaussian input prepared by ASE

0 2
Na                2.5922829152        3.8394820209        2.3712474353
Na                1.7053157387        1.3525718215        3.7982142019
Na                0.0000000000        2.5393584759        1.6399411187
Na                2.4491396440        2.0008282858        0.0000000000
Na                3.6183946857        0.0000000000        1.9136159620
Na                6.3463835056        1.2472386023        1.9396876964
Na                5.5740399722        4.1330013137        2.2053596428


