%mem=14GB
%chk=checkpoint.chk
%nprocshared=16
#P B3LYP/6-311+g(d) force ! ASE formatted method and basis

Gaussian input prepared by ASE

0 2
Na                2.2128390902        2.5108718497        0.0000000000
Na                2.9719096012        0.0000000000        1.4922476694
Na                4.8376787949        2.5317839089        1.4923187032
Na                2.9369240067        5.0359767483        1.4925660478
Na                2.2115545861        2.5145591004        2.9849033355
Na                0.0000000000        3.9125330585        1.4896846111
Na                0.0211308544        1.0856579999        1.4941536109


