%mem=14GB
%chk=checkpoint.chk
%nprocshared=16
#P B3LYP/6-311+g(d) force ! ASE formatted method and basis

Gaussian input prepared by ASE

0 2
Na                2.8323770777        2.1981511307        0.0021931534
Na                5.0831598831        2.1966663416        2.7717509561
Na                0.0000000000        2.1953470452        0.8757562053
Na                2.2504687855        2.5446831201        2.7708092183
Na                4.2287964872        4.3956309512        1.1665383464
Na                3.6940948744        0.0000000000        1.6025845686
Na                5.6650085532        1.8522559595        0.0000000000


