%mem=14GB
%chk=checkpoint.chk
%nprocshared=16
#P B3LYP/6-311+g(d) force ! ASE formatted method and basis

Gaussian input prepared by ASE

0 2
Na                0.7319940983        2.2579472187        2.5376270333
Na                2.8831289177        4.1351542401        1.6133742971
Na                0.3666891635        3.8246496065        0.0097884731
Na                0.0000000000        0.8481027754        0.0000000000
Na                2.4357077393        0.0000000000        1.5316883180
Na                4.5551141640        1.8830031138        0.5371028789
Na                7.5298238631        2.1838810891        0.7727406732


