%mem=14GB
%chk=checkpoint.chk
%nprocshared=16
#P B3LYP/6-311+g(d) force ! ASE formatted method and basis

Gaussian input prepared by ASE

0 2
Na                2.5390443121        1.6474007129        0.0000000000
Na                2.5379488360        1.6482708728        3.2562821260
Na                5.0730317094        2.4101234275        1.6289083810
Na                3.9265862316        0.0053518123        1.6289872043
Na                2.5340105692        3.6515575916        1.6275405943
Na                1.1588179770        0.0000000000        1.6280233906
Na                0.0000000000        2.4028596831        1.6287322698


