%mem=14GB
%chk=checkpoint.chk
%nprocshared=16
#P B3LYP/6-311+g(d) force ! ASE formatted method and basis

Gaussian input prepared by ASE

0 2
Na                4.2877966018        2.6764470466        2.5994543477
Na                5.0188308181        5.3163512943        2.4191211438
Na                3.5594198711        0.0000000000        1.7273302850
Na                3.4785349848        2.3368602115        0.0000000000
Na                5.6706537406        3.9846619793        0.1129098008
Na                2.7706737811        4.8251118779        0.9197155362
Na                0.0000000000        4.0898376828        1.4350594171


