%mem=14GB
%chk=checkpoint.chk
%nprocshared=16
#P B3LYP/6-311+g(d) force ! ASE formatted method and basis

Gaussian input prepared by ASE

0 2
Na                2.9722868822        2.0328748964        3.2887372272
Na                1.7667449787        4.1014015801        1.4754297774
Na                4.6928194793        3.4526432041        1.2927366331
Na                4.4491178386        0.4585223354        1.2107605084
Na                1.5117897593        0.0000000000        1.6293305457
Na                0.0000000000        2.2064949735        2.9889271721
Na                0.0951990210        2.0888482371        0.0000000000


