%mem=14GB
%chk=checkpoint.chk
%nprocshared=16
#P B3LYP/6-311+g(d) force ! ASE formatted method and basis

Gaussian input prepared by ASE

0 2
Na                2.4142920242        2.5185453875        3.1535263385
Na                2.3188431196        0.0000000000        2.7117207501
Na                4.8462864459        2.0741688778        2.3391654667
Na                2.6151318091        4.2804660234        1.2247249823
Na                0.0000000000        2.9209675416        2.3575983890
Na                0.7437697381        0.9657116575        0.7321861708
Na                3.2688826717        1.5712835565        0.0000000000


