%mem=14GB
%chk=checkpoint.chk
%nprocshared=16
#P B3LYP/6-311+g(d) force ! ASE formatted method and basis

Gaussian input prepared by ASE

0 2
Na                6.6504369602        0.0000000000        2.4344329325
Na                2.9002820401        0.0810229302        0.0000000000
Na                0.0000000000        2.7936074940        3.1821666969
Na                1.8374129260        2.7624289883        0.8132837106
Na                4.6855530252        2.0313467708        1.4195001642
Na                7.2548041975        2.9251028086        2.6826583613
Na                6.1726362977        4.3897856934        0.3008093054


