%mem=14GB
%chk=checkpoint.chk
%nprocshared=16
#P B3LYP/6-311+g(d) force ! ASE formatted method and basis

Gaussian input prepared by ASE

0 2
Na                4.8546814707        2.6533402642        0.0000000000
Na                4.1503458939        4.7684132144        2.0067082459
Na                6.9680905955        4.5236931171        1.0009017511
Na                7.1918283695        1.5787991420        1.5428284007
Na                4.6457505181        0.0000000000        1.3734922888
Na                2.6528247615        2.1654695157        1.9747524823
Na                0.0000000000        2.9898641789        0.8372626704


