%mem=14GB
%chk=checkpoint.chk
%nprocshared=16
#P B3LYP/6-311+g(d) force ! ASE formatted method and basis

Gaussian input prepared by ASE

0 2
Na                2.8830262134        0.0000000000        1.8998764506
Na                5.3583849067        0.4403788323        2.9940069749
Na                0.0000000000        0.3404854176        1.6491368795
Na                0.4900663009        3.2084088643        1.7849608406
Na                3.3192498108        2.6898969271        2.2380364779
Na                5.9853200539        2.7127845513        1.5932602910
Na                4.6231696742        0.9412276973        0.0000000000


