%mem=14GB
%chk=checkpoint.chk
%nprocshared=16
#P B3LYP/6-311+g(d) force ! ASE formatted method and basis

Gaussian input prepared by ASE

0 2
Na                0.2405411238        1.3036932237        3.1516578191
Na                0.2737254060        3.1724415547        1.2318001206
Na                2.4243481508        2.1692744614        0.0000000000
Na                4.5830598422        1.5109132613        1.6584507362
Na                2.3972351060        2.8066487989        2.8301779520
Na                2.2412415699        0.0000000000        1.9236488381
Na                0.0000000000        0.6040677665        0.5975559847


