%mem=14GB
%chk=checkpoint.chk
%nprocshared=16
#P B3LYP/6-311+g(d) force ! ASE formatted method and basis

Gaussian input prepared by ASE

0 2
Na                2.1387233380        1.8380701292        3.4429998533
Na                2.6396736163        3.8812942684        1.7566082758
Na                5.1821377933        2.4441711566        1.6836692757
Na                3.5847880661        0.0000000000        1.7871020472
Na                0.6703323761        0.2838263692        1.8218092839
Na                2.0925801192        1.6743257645        0.0000000000
Na                0.0000000000        2.9854918825        1.6778416205


