%mem=14GB
%chk=checkpoint.chk
%nprocshared=16
#P B3LYP/6-311+g(d) force ! ASE formatted method and basis

Gaussian input prepared by ASE

0 2
Na                0.0000000000        0.4041095497        1.9591672071
Na                2.9691649023        3.7985922342        1.9584156413
Na                5.2971002104        1.8977105924        1.9589015589
Na                2.9635181854        0.0000000000        1.9584908411
Na                1.7002818738        1.9009745860        3.9175427886
Na                1.6995217460        1.9007904240        0.0000000000
Na                0.0022191964        3.3981799002        1.9590210608


