%mem=14GB
%chk=checkpoint.chk
%nprocshared=16
#P B3LYP/6-311+g(d) force ! ASE formatted method and basis

Gaussian input prepared by ASE

0 2
Na                2.9553913822        2.8560832533        1.9451709133
Na                1.6707721055        1.5018917961        0.0000000000
Na                5.6504888203        1.8388501584        1.6304625582
Na                3.3919813563        0.0365708882        1.8843082722
Na                0.0000000000        0.0000000000        1.5020139007
Na                1.2821214973        1.3678057136        3.4458914059
Na                0.1680723463        3.4145593094        1.6528272518


