%mem=14GB
%chk=checkpoint.chk
%nprocshared=16
#P B3LYP/6-311+g(d) force ! ASE formatted method and basis

Gaussian input prepared by ASE

0 2
Na                5.2802419006        0.8543904100        2.5358880794
Na                2.3478353912        3.6465162483        1.8551182826
Na                0.0000000000        2.0117170747        0.9679940520
Na                2.2822196092        0.6954357902        2.4015697749
Na                3.9433825879        0.0000000000        0.0000000000
Na                4.8235748105        2.8509897972        0.3436675451
Na                7.5802869560        2.4340177131        1.4403473060


