%mem=14GB
%chk=checkpoint.chk
%nprocshared=16
#P B3LYP/6-311+g(d) force ! ASE formatted method and basis

Gaussian input prepared by ASE

0 2
Na                2.9274832677        2.8251543952        2.9387974471
Na                3.3048188280        3.3218771983        0.0000000000
Na                0.0000000000        3.2044032291        2.3760744872
Na                0.8761059916        1.5489653924        0.0300227023
Na                2.5270119402        0.0000000000        2.0065004390
Na                5.1059587746        1.4185675283        1.4493224159
Na                7.8644513832        2.5747155659        1.5794576427


