%mem=14GB
%chk=checkpoint.chk
%nprocshared=16
#P B3LYP/6-311+g(d) force ! ASE formatted method and basis

Gaussian input prepared by ASE

0 2
Na                7.6107059384        2.4818958877        0.0000000000
Na                6.6664154396        4.9852688385        1.3506940532
Na                0.0000000000        2.3710669627        1.3771278885
Na                2.0278474468        4.1941043990        0.1304774564
Na                4.6905559921        2.8676710478        0.5512027033
Na                6.1903760694        0.6573376383        1.9132846591
Na                3.9712003967        0.0000000000        0.0134924997


