%mem=14GB
%chk=checkpoint.chk
%nprocshared=16
#P B3LYP/6-311+g(d) force ! ASE formatted method and basis

Gaussian input prepared by ASE

0 2
Na                3.9279409447        1.7147755186        0.0000000000
Na                3.8579969118        1.7253766468        3.5922563307
Na                6.0235572346        0.6027988497        1.8416708079
Na                5.4742786166        3.5277851714        1.8217719922
Na                2.5001473891        3.6927478948        1.7635164668
Na                0.0000000000        2.0409663866        1.8280662495
Na                2.1909622057        0.0000000000        1.7686102521


