%mem=14GB
%chk=checkpoint.chk
%nprocshared=16
#P B3LYP/6-311+g(d) force ! ASE formatted method and basis

Gaussian input prepared by ASE

0 2
Na                2.6566418654        2.1133020515        0.0000000000
Na                1.6886442330        0.0000000000        1.3461449760
Na                1.6721454247        4.2225025864        1.3461286044
Na                0.0000000000        2.1057625361        1.7571228219
Na                4.5192863974        3.5829362555        1.5948312982
Na                2.6488129703        2.1135388024        3.1890358213
Na                4.5294405050        0.6572565153        1.5949988769


