%mem=14GB
%chk=checkpoint.chk
%nprocshared=16
#P B3LYP/6-311+g(d) force ! ASE formatted method and basis

Gaussian input prepared by ASE

0 2
Na                2.7463890394        1.5738334591        3.1605953173
Na                2.1980416212        0.0023604541        0.8404702905
Na                0.0000000000        1.5749543081        2.0517144401
Na                2.2023294727        3.1462591180        0.8397104267
Na                4.4292854458        1.5706510718        0.0000000000
Na                4.9786773494        3.1474517633        2.3186548561
Na                4.9772427317        0.0000000000        2.3209345862


