%mem=14GB
%chk=checkpoint.chk
%nprocshared=16
#P B3LYP/6-311+g(d) force ! ASE formatted method and basis

Gaussian input prepared by ASE

0 2
Na                1.0765776065        0.0036100868        1.8188316715
Na                2.6325091770        1.9538325187        3.2169574447
Na                2.6314353275        1.5772442596        0.0000000000
Na                4.1856687338        0.0000000000        1.8184199443
Na                5.2717795288        2.8684106057        1.5735062942
Na                2.6388271473        4.4270738579        1.7220209135
Na                0.0000000000        2.8767574653        1.5736481769


