%mem=14GB
%chk=checkpoint.chk
%nprocshared=16
#P B3LYP/6-311+g(d) force ! ASE formatted method and basis

Gaussian input prepared by ASE

0 2
Na                4.6140671422        0.0000000000        1.2553410430
Na                4.2182883242        2.7017633184        0.0000000000
Na                6.9816649525        1.7063382616        0.5747098423
Na                5.1645336274        2.4932414979        2.8277165446
Na                2.2504375213        2.9490345318        2.2581024214
Na                1.6493320325        0.0495474532        1.7658975853
Na                0.0000000000        2.1721369363        0.4353808478


