%mem=14GB
%chk=checkpoint.chk
%nprocshared=16
#P B3LYP/6-311+g(d) force ! ASE formatted method and basis

Gaussian input prepared by ASE

0 2
Na                0.9034284764        2.9513525762        0.0000000000
Na                1.0468830168        4.7417654961        2.4022205057
Na                0.0000000000        0.1389074107        0.5355490856
Na                1.9223638898        0.0000000000        2.8380954142
Na                3.1217274642        2.6194584426        1.9935274535
Na                5.8570698401        3.1697317455        0.8934860723
Na                8.1342862001        1.2582840038        1.2740356727


