%mem=14GB
%chk=checkpoint.chk
%nprocshared=16
#P B3LYP/6-311+g(d) force ! ASE formatted method and basis

Gaussian input prepared by ASE

0 2
Na                4.2711449827        2.4414699125        0.3894185761
Na                4.6453249180        0.0000000000        2.1050856398
Na                6.9442129668        3.4752746196        1.2877327872
Na                4.8510442040        2.7427924198        3.3085974146
Na                2.4284264311        4.0552441584        2.1209061221
Na                1.2997529992        2.2652679682        0.0000000000
Na                0.0000000000        2.3935583333        2.6988959597


