%mem=14GB
%chk=checkpoint.chk
%nprocshared=16
#P B3LYP/6-311+g(d) force ! ASE formatted method and basis

Gaussian input prepared by ASE

0 2
Na                4.2970340367        0.0490550612        2.0463775803
Na                0.0000000000        4.2278852719        1.8960361397
Na                0.0397977672        0.0000000000        1.8826757546
Na                2.1561956698        2.1350956794        1.7763964576
Na                4.5673178106        2.2201984639        0.0000000000
Na                4.2972833780        4.1851290718        2.2457046569
Na                3.8315612081        2.0150365781        4.2607373392


