%mem=14GB
%chk=checkpoint.chk
%nprocshared=16
#P B3LYP/6-311+g(d) force ! ASE formatted method and basis

Gaussian input prepared by ASE

0 2
Na                2.1891899349        1.8929396413        2.9693830739
Na                3.9507680321        0.0000000000        1.4304047649
Na                6.2748253883        1.8924410500        1.5806020914
Na                3.9518720053        3.7843864039        1.4307785591
Na                2.0998504478        1.8922498704        0.0000000000
Na                0.0000000000        0.4041479325        1.5496944272
Na                0.0047656894        3.3839270142        1.5484099541


