%mem=14GB
%chk=checkpoint.chk
%nprocshared=16
#P B3LYP/6-311+g(d) force ! ASE formatted method and basis

Gaussian input prepared by ASE

0 2
Na                4.8248072564        2.4693797148        2.8821223571
Na                7.5359221438        1.5667764932        1.9334749020
Na                0.0000000000        2.4638416060        1.8628767620
Na                2.6968305239        3.3547829554        0.9446305328
Na                5.9999104716        4.9331329458        1.6199684645
Na                5.4158161476        2.4688336347        0.0000000000
Na                4.2488652166        0.0000000000        1.2616486021


