%mem=14GB
%chk=checkpoint.chk
%nprocshared=16
#P B3LYP/6-311+g(d) force ! ASE formatted method and basis

Gaussian input prepared by ASE

0 2
Na                2.7011417721        2.4379926632        3.0081019950
Na                2.2418586726        2.9467577515        0.2794312357
Na                0.0000000000        2.0695126114        1.9438669470
Na                1.9685110463        0.0000000000        1.2957585408
Na                4.2565651712        1.0013708860        0.0000000000
Na                4.7119914270        0.4898033925        2.7280416606
Na                4.9862281042        3.4425883940        1.7113616612


