%mem=14GB
%chk=checkpoint.chk
%nprocshared=16
#P B3LYP/6-311+g(d) force ! ASE formatted method and basis

Gaussian input prepared by ASE

0 2
Na                2.5174029615        2.4631923138        2.7683739307
Na                4.6012117430        3.9706029047        1.9057921604
Na                0.0000000000        3.4493545990        1.7467613400
Na                0.4883692242        0.6026067409        1.8903659488
Na                3.3224456833        0.0000000000        1.9930735624
Na                5.5472592155        1.4814414990        2.4396305901
Na                3.7457594817        1.8552218031        0.0000000000


