
%NProcShared=16
%mem=12GB
%Chk=checkpoint.chk
#p B3LYP/6-311+g(d) force

!min_dist: 2.2 max_dist: 5.8

0 1
Na 0.0 0.0 0.0
Na -1.9760295831778185 0.0 2.6618672756073125
Na 0.0 0.0 5.7501187193030425
Na 0.8047767498243719 -3.0304905018246933 1.264913938506723

--Link1--

%NProcShared=16
%mem=12GB
%Chk=checkpoint.chk
#p B3LYP/6-311+g(d) force

!min_dist: 2.2 max_dist: 5.8

0 1
Na 0.0 0.0 0.0
Na -4.021653720558418 0.0 0.1333455834333928
Na 0.0 0.0 5.52597883888501
Na -2.2315297325521475 -2.541986603113163 5.363921407184065

--Link1--

%NProcShared=16
%mem=12GB
%Chk=checkpoint.chk
#p B3LYP/6-311+g(d) force

!min_dist: 2.2 max_dist: 5.8

0 1
Na 0.0 0.0 0.0
Na -4.076590488414305 0.0 2.734481656646606
Na 0.0 0.0 2.9631170127519644
Na 2.947387762995764 -3.263047883457605 0.24965814174403222

--Link1--

%NProcShared=16
%mem=12GB
%Chk=checkpoint.chk
#p B3LYP/6-311+g(d) force

!min_dist: 2.2 max_dist: 5.8

0 1
Na 0.0 0.0 0.0
Na -0.4740477331227552 0.0 -2.357842426682729
Na 0.0 0.0 2.4925043581981017
Na 0.18358431104044798 -0.38205057408623133 8.073176378276774

--Link1--

%NProcShared=16
%mem=12GB
%Chk=checkpoint.chk
#p B3LYP/6-311+g(d) force

!min_dist: 2.2 max_dist: 5.8

0 1
Na 0.0 0.0 0.0
Na -3.7677030587606306 0.0 -0.8634742216614311
Na 0.0 0.0 5.129754911339557
Na -0.31038115970951335 -4.788820817043882 7.0605481819456815

--Link1--

%NProcShared=16
%mem=12GB
%Chk=checkpoint.chk
#p B3LYP/6-311+g(d) force

!min_dist: 2.2 max_dist: 5.8

0 1
Na 0.0 0.0 0.0
Na -0.9168268224213892 0.0 -2.072679080313778
Na 0.0 0.0 5.188796748303844
Na -1.7751463079376137 -0.13711681717892757 6.6819670823667465

--Link1--

%NProcShared=16
%mem=12GB
%Chk=checkpoint.chk
#p B3LYP/6-311+g(d) force

!min_dist: 2.2 max_dist: 5.8

0 1
Na 0.0 0.0 0.0
Na -3.093718333250814 0.0 4.342142195332814
Na 0.0 0.0 5.092654836675923
Na 3.527578659517083 -3.4960831683630493 5.106431306720761

--Link1--


%NProcShared=16
%mem=12GB
%Chk=checkpoint.chk
#p B3LYP/6-311+g(d) force

!min_dist: 2.2 max_dist: 5.8

0 1
Na 0.0 0.0 0.0
Na -3.6709768919215437 0.0 -2.086938735393668
Na 0.0 0.0 2.703202291646625
Na -2.1751237291227827 -0.4088270307760401 2.904967753872974

--Link1--

%NProcShared=16
%mem=12GB
%Chk=checkpoint.chk
#p B3LYP/6-311+g(d) force

!min_dist: 2.2 max_dist: 5.8

0 1
Na 0.0 0.0 0.0
Na -2.218864955559665 0.0 3.0755862798961546
Na 0.0 0.0 5.584009548491071
Na -1.0471117174246178 -3.272029111439751 8.458707948383788

--Link1--


%NProcShared=16
%mem=12GB
%Chk=checkpoint.chk
#p B3LYP/6-311+g(d) force

!min_dist: 2.2 max_dist: 5.8

0 1
Na 0.0 0.0 0.0
Na -2.8112841785611473 0.0 -0.18623721877230814
Na 0.0 0.0 4.955260808071193
Na -0.33215382796906506 -0.23937098328364345 7.873401602928132

