%NProcShared=16
%mem=12GB
%Chk=checkpoint.chk
#p B3LYP/6-311+g(d) force

Test

0 1
Na 0.0 0.0 0.0
Na 2.8411816286250025 0.0 0.0
Na -0.5395908973901582 3.001879160845201 0.0
Na -5.76055656846375 5.1810660532288 0.0

--Link1--
%NProcShared=16
%mem=12GB
%Chk=checkpoint.chk
#p B3LYP/6-311+g(d) force

Test

0 1
Na 0.0 0.0 0.0
Na 4.201603086480652 0.0 0.0
Na 4.638412626993981 2.436003237490054 0.0
Na 1.0347940749362916 2.8228910978429274 0.0

--Link1--
%NProcShared=16
%mem=12GB
%Chk=checkpoint.chk
#p B3LYP/6-311+g(d) force

Test

0 1
Na 0.0 0.0 0.0
Na 3.4345521726142927 0.0 0.0
Na 0.6436533336462635 2.6945236769115826 0.0
Na -1.2897406825710158 4.197037114756085 0.0

--Link1--
%NProcShared=16
%mem=12GB
%Chk=checkpoint.chk
#p B3LYP/6-311+g(d) force

Test

0 1
Na 0.0 0.0 0.0
Na 3.5755903792184416 0.0 0.0
Na 7.9972117315876305 3.5809202681289185 0.0
Na 4.893142079616334 2.0920976195234644 0.0

--Link1--
%NProcShared=16
%mem=12GB
%Chk=checkpoint.chk
#p B3LYP/6-311+g(d) force

Test

0 1
Na 0.0 0.0 0.0
Na 3.3545432454779096 0.0 0.0
Na 6.599057258021958 4.097061241200586 0.0
Na 2.5668182055846094 4.826377328092669 0.0

--Link1--
%NProcShared=16
%mem=12GB
%Chk=checkpoint.chk
#p B3LYP/6-311+g(d) force

Test

0 1
Na 0.0 0.0 0.0
Na 4.791311511233781 0.0 0.0
Na 7.366562775203514 4.666628869755623 0.0
Na 4.617399314235026 3.9768989937049657 0.0

--Link1--
%NProcShared=16
%mem=12GB
%Chk=checkpoint.chk
#p B3LYP/6-311+g(d) force

Test

0 1
Na 0.0 0.0 0.0
Na 2.3271208505161116 0.0 0.0
Na 7.625889528925981 1.5792276024239789 0.0
Na 3.6576969511060646 5.434802757073965 0.0

--Link1--
%NProcShared=16
%mem=12GB
%Chk=checkpoint.chk
#p B3LYP/6-311+g(d) force

Test

0 1
Na 0.0 0.0 0.0
Na 5.539371914392445 0.0 0.0
Na 6.164723375748177 4.552179008033512 0.0
Na 1.737904622161735 5.832380908282496 0.0

--Link1--
%NProcShared=16
%mem=12GB
%Chk=checkpoint.chk
#p B3LYP/6-311+g(d) force

Test

0 1
Na 0.0 0.0 0.0
Na 2.480618842289206 0.0 0.0
Na 5.478986996886985 4.704790944928358 0.0
Na 4.553031365977805 7.410249904169424 0.0

--Link1--
%NProcShared=16
%mem=12GB
%Chk=checkpoint.chk
#p B3LYP/6-311+g(d) force

Test

0 1
Na 0.0 0.0 0.0
Na 4.540812474496895 0.0 0.0
Na 7.37828785146835 2.733578164217056 0.0
Na 8.422167875451233 4.912790134835494 0.0
