%NProcShared=16
%mem=12GB
%Chk=checkpoint.chk
#p B3LYP/6-311+g(d) force

Test

0 1
Na 0.0 0.0 0.0
Na 4.366540219022963 1.7026915340448519 0.0
Na 2.4907504799713616 3.558553345123679 0.0
Na 0.47236820479002173 5.555492824364748 0.0

--Link1--
%NProcShared=16
%mem=12GB
%Chk=checkpoint.chk
#p B3LYP/6-311+g(d) force

Test

0 1
Na 0.0 0.0 0.0
Na 2.518747181866247 1.8332453358962317 0.0
Na 2.513485077951205 6.629028231852786 0.0
Na 2.5088970347934083 10.810484785603752 0.0

--Link1--
%NProcShared=16
%mem=12GB
%Chk=checkpoint.chk
#p B3LYP/6-311+g(d) force

Test

0 1
Na 0.0 0.0 0.0
Na 1.5362390856319867 4.213831235871992 0.0
Na 1.3380996891197592 7.802599359734476 0.0
Na 1.209226902684579 10.136787088843516 0.0

--Link1--
%NProcShared=16
%mem=12GB
%Chk=checkpoint.chk
#p B3LYP/6-311+g(d) force

Test

0 1
Na 0.0 0.0 0.0
Na 1.5836976268266263 2.4800532803696913 0.0
Na -1.5907359991162193 3.9830382922608827 0.0
Na -5.876480712683523 6.012190836715292 0.0

--Link1--
%NProcShared=16
%mem=12GB
%Chk=checkpoint.chk
#p B3LYP/6-311+g(d) force

Test

0 1
Na 0.0 0.0 0.0
Na 3.341985429182059 3.4970561929901876 0.0
Na 3.7126697662884047 7.958877798663297 0.0
Na 3.9743332889570278 11.108446965715675 0.0

--Link1--
%NProcShared=16
%mem=12GB
%Chk=checkpoint.chk
#p B3LYP/6-311+g(d) force

Test

0 1
Na 0.0 0.0 0.0
Na -2.43161650512721 2.6635230162104984 0.0
Na -4.625919374386395 3.102198613703592 0.0
Na -9.162298884835483 4.00909210597411 0.0

--Link1--
%NProcShared=16
%mem=12GB
%Chk=checkpoint.chk
#p B3LYP/6-311+g(d) force

Test

0 1
Na 0.0 0.0 0.0
Na -2.473885842998004 0.180996398727593 0.0
Na -4.013523857286991 -4.040867890811778 0.0
Na -5.2277313495221485 -7.370364307491302 0.0

--Link1--
%NProcShared=16
%mem=12GB
%Chk=checkpoint.chk
#p B3LYP/6-311+g(d) force

Test

0 1
Na 0.0 0.0 0.0
Na -3.635994647452402 2.4636532893847995 0.0
Na -6.257874467749218 3.5178989007197554 0.0
Na -8.713482096668805 4.505287241675841 0.0

--Link1--
%NProcShared=16
%mem=12GB
%Chk=checkpoint.chk
#p B3LYP/6-311+g(d) force

Test

0 1
Na 0.0 0.0 0.0
Na 4.469555078808122 2.8667911310327887 0.0
Na 2.0212398047572746 6.838877223209632 0.0
Na 0.05778619150430475 10.024335759737358 0.0

--Link1--
%NProcShared=16
%mem=12GB
%Chk=checkpoint.chk
#p B3LYP/6-311+g(d) force

Test

0 1
Na 0.0 0.0 0.0
Na -2.0018261557462798 3.8222420224565266 0.0
Na -2.1782501423922254 -1.3693282019043158 0.0
Na -2.373039109286955 -7.101318617664073 0.0
