%NProcShared=16
%mem=12GB
%Chk=checkpoint.chk
#p B3LYP/6-311+g(d) force

Test

0 1
Na 0.0 0.0 0.0
Na 4.409944743481153 0.0 0.0
Na 4.015579098914273 4.513236248967301 0.0
Na 0.2437322091018621 3.6273498254363834 0.0

--Link1--
%NProcShared=16
%mem=12GB
%Chk=checkpoint.chk
#p B3LYP/6-311+g(d) force

Test

0 1
Na 0.0 0.0 0.0
Na 5.167294256869782 0.0 0.0
Na 6.5442353369948725 1.9141605877261578 0.0
Na 4.425590498370076 3.405472165795938 0.0

--Link1--
%NProcShared=16
%mem=12GB
%Chk=checkpoint.chk
#p B3LYP/6-311+g(d) force

Test

0 1
Na 0.0 0.0 0.0
Na 2.271591677582046 0.0 0.0
Na -2.3744214851618177 2.368271955757759 0.0
Na -5.956737824970883 -1.7093448845383543 0.0

--Link1--
%NProcShared=16
%mem=12GB
%Chk=checkpoint.chk
#p B3LYP/6-311+g(d) force

Test

0 1
Na 0.0 0.0 0.0
Na 2.346384944537389 0.0 0.0
Na 4.885678429911366 0.47377496412714265 0.0
Na 7.190019321222766 4.24085718104495 0.0

--Link1--
%NProcShared=16
%mem=12GB
%Chk=checkpoint.chk
#p B3LYP/6-311+g(d) force

Test

0 1
Na 0.0 0.0 0.0
Na 2.447617122144102 0.0 0.0
Na 2.740561785032937 5.098362457161733 0.0
Na 1.5049012840359979 8.205575383238404 0.0

--Link1--
%NProcShared=16
%mem=12GB
%Chk=checkpoint.chk
#p B3LYP/6-311+g(d) force

Test

0 1
Na 0.0 0.0 0.0
Na 4.3415061684130825 0.0 0.0
Na 7.092210170314659 4.467644263498824 0.0
Na 9.085608999660725 8.71454005593212 0.0

--Link1--
%NProcShared=16
%mem=12GB
%Chk=checkpoint.chk
#p B3LYP/6-311+g(d) force

Test

0 1
Na 0.0 0.0 0.0
Na 3.4670486490679933 0.0 0.0
Na 8.348000037739594 2.7536169856741055 0.0
Na 10.507259195204902 8.089121481301637 0.0

--Link1--
%NProcShared=16
%mem=12GB
%Chk=checkpoint.chk
#p B3LYP/6-311+g(d) force

Test

0 1
Na 0.0 0.0 0.0
Na 2.2766815056737304 0.0 0.0
Na 7.704245656916636 0.11924611324965002 0.0
Na 11.576085625575995 0.27551176962958274 0.0

--Link1--
%NProcShared=16
%mem=12GB
%Chk=checkpoint.chk
#p B3LYP/6-311+g(d) force

Test

0 1
Na 0.0 0.0 0.0
Na 2.2072512438135132 0.0 0.0
Na -2.6633062790328377 0.1831228494106981 0.0
Na -4.872588794497619 -2.731563228101484 0.0

--Link1--
%NProcShared=16
%mem=12GB
%Chk=checkpoint.chk
#p B3LYP/6-311+g(d) force

Test

0 1
Na 0.0 0.0 0.0
Na 3.388576490262226 0.0 0.0
Na 8.130157965370726 1.4959939440338155 0.0
Na 11.209193565757632 5.070885337233024 0.0
