%NProcShared=16
%mem=12GB
%Chk=checkpoint.chk
#p B3LYP/6-311+g(d) force

Test

0 1
Na 0.0 0.0 0.0
Na 2.363351584223431 0.0 0.0
Na 1.9974889537948766 5.743057129760536 0.0
Na -0.6200149273079707 4.344548769493401 0.0

--Link1--
%NProcShared=16
%mem=12GB
%Chk=checkpoint.chk
#p B3LYP/6-311+g(d) force

Test

0 1
Na 0.0 0.0 0.0
Na 3.620974278659894 0.0 0.0
Na 8.963262412144802 0.5231506530266815 0.0
Na 7.233918358466079 2.107726456199369 0.0

--Link1--
%NProcShared=16
%mem=12GB
%Chk=checkpoint.chk
#p B3LYP/6-311+g(d) force

Test

0 1
Na 0.0 0.0 0.0
Na 2.5572557444416506 0.0 0.0
Na -2.1614953692560177 0.7272900416233389 0.0
Na -0.9528723235496386 -3.0751156027352833 0.0

--Link1--
%NProcShared=16
%mem=12GB
%Chk=checkpoint.chk
#p B3LYP/6-311+g(d) force

Test

0 1
Na 0.0 0.0 0.0
Na 5.755712643105904 0.0 0.0
Na 9.12351189399159 0.38150271134679076 0.0
Na 7.367043306982193 3.574584126926501 0.0

--Link1--
%NProcShared=16
%mem=12GB
%Chk=checkpoint.chk
#p B3LYP/6-311+g(d) force

Test

0 1
Na 0.0 0.0 0.0
Na 5.038144874791173 0.0 0.0
Na 7.1665344547374445 0.9837977331976551 0.0
Na 9.903659402546474 3.9918403538840574 0.0

--Link1--
%NProcShared=16
%mem=12GB
%Chk=checkpoint.chk
#p B3LYP/6-311+g(d) force

Test

0 1
Na 0.0 0.0 0.0
Na 2.51116754231865 0.0 0.0
Na -0.1882871379768689 4.241647769807982 0.0
Na -2.05320918350309 1.5687791706937544 0.0

--Link1--
%NProcShared=16
%mem=12GB
%Chk=checkpoint.chk
#p B3LYP/6-311+g(d) force

Test

0 1
Na 0.0 0.0 0.0
Na 3.2291430421618856 0.0 0.0
Na 2.299269527801972 2.305612658343781 0.0
Na -0.3202147756531959 4.332021100085038 0.0

--Link1--
%NProcShared=16
%mem=12GB
%Chk=checkpoint.chk
#p B3LYP/6-311+g(d) force

Test

0 1
Na 0.0 0.0 0.0
Na 4.252053180783797 0.0 0.0
Na 8.222744794610765 0.2953385078780907 0.0
Na 10.342108063478612 4.010664059795533 0.0

--Link1--
%NProcShared=16
%mem=12GB
%Chk=checkpoint.chk
#p B3LYP/6-311+g(d) force

Test

0 1
Na 0.0 0.0 0.0
Na 4.731997686863362 0.0 0.0
Na 7.267494744488507 0.8283418938797207 0.0
Na 9.491152630391538 3.6864098046443283 0.0

--Link1--
%NProcShared=16
%mem=12GB
%Chk=checkpoint.chk
#p B3LYP/6-311+g(d) force

Test

0 1
Na 0.0 0.0 0.0
Na 5.363120782990048 0.0 0.0
Na 8.317583983254135 3.359583095426814 0.0
Na 5.677614325482603 2.497928504668624 0.0
