%NProcShared=16
%mem=12GB
%Chk=checkpoint.chk
#p B3LYP/6-311+g(d) force

Test

0 1
Na 0.0 0.0 0.0
Na -2.5164906692018563 0.0 1.5532249201015396
Na 0.0 0.0 5.277207572961229
Na -0.9906421589749206 -2.6414438925766945 6.823123799578213

--Link1--
%NProcShared=16
%mem=12GB
%Chk=checkpoint.chk
#p B3LYP/6-311+g(d) force

Test

0 1
Na 0.0 0.0 0.0
Na -2.859019577138122 0.0 -0.14686236960617757
Na 0.0 0.0 5.426138816833595
Na 0.2092902816188483 -0.672573652094702 2.9173256695581657

--Link1--
%NProcShared=16
%mem=12GB
%Chk=checkpoint.chk
#p B3LYP/6-311+g(d) force

Test

0 1
Na 0.0 0.0 0.0
Na -3.3790322276078424 0.0 2.449269230592683
Na 0.0 0.0 4.060877781928101
Na -3.920311662633413 -1.6844140913056993 6.584249897153021

--Link1--
%NProcShared=16
%mem=12GB
%Chk=checkpoint.chk
#p B3LYP/6-311+g(d) force

Test

0 1
Na 0.0 0.0 0.0
Na -3.8131941512315453 0.0 1.624158747315533
Na 0.0 0.0 5.426818640532882
Na 2.228541430687886 -4.461977868098826 4.860535110148623

--Link1--
%NProcShared=16
%mem=12GB
%Chk=checkpoint.chk
#p B3LYP/6-311+g(d) force

Test

0 1
Na 0.0 0.0 0.0
Na -2.922447485406116 0.0 -2.864334703274884
Na 0.0 0.0 4.612099797926465
Na -1.0816500170633765 -3.9637033875777448 1.8074176450146355

--Link1--
%NProcShared=16
%mem=12GB
%Chk=checkpoint.chk
#p B3LYP/6-311+g(d) force

Test

0 1
Na 0.0 0.0 0.0
Na -0.11656209743171513 0.0 -3.255879168579785
Na 0.0 0.0 2.8108307584525463
Na -2.7966696280745538 -0.08105105136700193 6.4765902800554755

--Link1--
%NProcShared=16
%mem=12GB
%Chk=checkpoint.chk
#p B3LYP/6-311+g(d) force

Test

0 1
Na 0.0 0.0 0.0
Na -3.678809369865032 0.0 -2.3634433316221437
Na 0.0 0.0 3.0401086967696145
Na 1.7103922438408865 -2.701074713277479 6.516332702248988

--Link1--
%NProcShared=16
%mem=12GB
%Chk=checkpoint.chk
#p B3LYP/6-311+g(d) force

Test

0 1
Na 0.0 0.0 0.0
Na -1.9368923367950446 0.0 -4.832399022135369
Na 0.0 0.0 2.518338316547826
Na 3.523943582138573 -0.12274971370293808 6.781876926937333

--Link1--
%NProcShared=16
%mem=12GB
%Chk=checkpoint.chk
#p B3LYP/6-311+g(d) force

Test

0 1
Na 0.0 0.0 0.0
Na -2.896578798089541 0.0 0.24714711666909928
Na 0.0 0.0 4.899010539783276
Na 0.8106502502910246 -3.045479150198655 8.365033491853463

--Link1--
%NProcShared=16
%mem=12GB
%Chk=checkpoint.chk
#p B3LYP/6-311+g(d) force

Test

0 1
Na 0.0 0.0 0.0
Na -1.143480659334719 0.0 -5.277492768453094
Na 0.0 0.0 3.851468272176124
Na 2.2657606314687504 -1.0303965822929064 6.377583253084497
