%NProcShared=16
%mem=12GB
%Chk=checkpoint.chk
#p B3LYP/6-311+g(d) force

Test

0 1
Na 0.0 0.0 0.0
Na -5.371677722119423 0.0 0.07731206998873028
Na 0.0 0.0 4.095994286259314
Na -1.4687383577414252 -1.492298956671829 6.92159874714217

--Link1--
%NProcShared=16
%mem=12GB
%Chk=checkpoint.chk
#p B3LYP/6-311+g(d) force

Test

0 1
Na 0.0 0.0 0.0
Na -4.05399883999659 0.0 -1.3730613850011986
Na 0.0 0.0 3.0084814749129025
Na -2.851982624397684 -2.426060828836475 2.4970326428252854

--Link1--
%NProcShared=16
%mem=12GB
%Chk=checkpoint.chk
#p B3LYP/6-311+g(d) force

Test

0 1
Na 0.0 0.0 0.0
Na -2.0032889744538607 0.0 -1.6353170466932694
Na 0.0 0.0 3.9744180191916447
Na -1.2763624981916255 -4.631243786499848 3.2441910002140704

--Link1--
%NProcShared=16
%mem=12GB
%Chk=checkpoint.chk
#p B3LYP/6-311+g(d) force

Test

0 1
Na 0.0 0.0 0.0
Na -2.73909316128538 0.0 -1.0677100904254249
Na 0.0 0.0 5.568864635396039
Na -3.797169414245079 -0.5324055470072112 3.2675679553453447

--Link1--
%NProcShared=16
%mem=12GB
%Chk=checkpoint.chk
#p B3LYP/6-311+g(d) force

Test

0 1
Na 0.0 0.0 0.0
Na -0.8813253449827544 0.0 5.673339220420942
Na 0.0 0.0 2.5285316651829697
Na 0.007046453261481525 -2.171165519712422 7.331887063722943

--Link1--
%NProcShared=16
%mem=12GB
%Chk=checkpoint.chk
#p B3LYP/6-311+g(d) force

Test

0 1
Na 0.0 0.0 0.0
Na -2.3170672962408494 0.0 4.169019476137791
Na 0.0 0.0 5.021871407918961
Na 1.465990431748359 -0.03996057880074027 9.115586119641112

--Link1--
%NProcShared=16
%mem=12GB
%Chk=checkpoint.chk
#p B3LYP/6-311+g(d) force

Test

0 1
Na 0.0 0.0 0.0
Na -4.16794102646627 0.0 2.7597653884693654
Na 0.0 0.0 4.15208731553896
Na -3.459845208496854 -2.244817058507425 1.967942125007038

--Link1--
%NProcShared=16
%mem=12GB
%Chk=checkpoint.chk
#p B3LYP/6-311+g(d) force

Test

0 1
Na 0.0 0.0 0.0
Na -1.9400148237186159 0.0 3.75159368878911
Na 0.0 0.0 4.919003449736776
Na -0.3847663332807799 -0.4916804771403251 10.001800343698571

--Link1--
%NProcShared=16
%mem=12GB
%Chk=checkpoint.chk
#p B3LYP/6-311+g(d) force

Test

0 1
Na 0.0 0.0 0.0
Na -2.502101858309288 0.0 1.090249049318428
Na 0.0 0.0 3.825553308959359
Na -0.1178852745522344 -2.398493605735098 5.547786526925384

--Link1--
%NProcShared=16
%mem=12GB
%Chk=checkpoint.chk
#p B3LYP/6-311+g(d) force

Test

0 1
Na 0.0 0.0 0.0
Na -2.185643558885964 0.0 2.809742713512748
Na 0.0 0.0 3.5376485228801267
Na -1.4382509103253507 -0.8674449635993832 6.287577720294234
