%NProcShared=16
%mem=12GB
%Chk=checkpoint.chk
#p B3LYP/6-311+g(d) force

Test

0 1
Na    0.0    0.0    0.0
Na    0.0    0.0    4.489802339869439
Na    0.0    0.0    9.40251510173217
Na    0.0    0.0    13.002946277223607

--Link1--

%NProcShared=16
%mem=12GB
%Chk=checkpoint.chk
#p B3LYP/6-311+g(d) force

Test

0 1
Na    0.0    0.0    0.0
Na    0.0    0.0    3.4214111602608503
Na    0.0    0.0    6.7718711523241
Na    0.0    0.0    10.842450499925118

--Link1--

%NProcShared=16
%mem=12GB
%Chk=checkpoint.chk
#p B3LYP/6-311+g(d) force

Test

0 1
Na    0.0    0.0    0.0
Na    0.0    0.0    2.8811571405839067
Na    0.0    0.0    5.277831875871845
Na    0.0    0.0    10.40320154230697

--Link1--

%NProcShared=16
%mem=12GB
%Chk=checkpoint.chk
#p B3LYP/6-311+g(d) force

Test

0 1
Na    0.0    0.0    0.0
Na    0.0    0.0    4.982343802041957
Na    0.0    0.0    8.754975706941407
Na    0.0    0.0    13.89891085930293

--Link1--

%NProcShared=16
%mem=12GB
%Chk=checkpoint.chk
#p B3LYP/6-311+g(d) force

Test

0 1
Na    0.0    0.0    0.0
Na    0.0    0.0    3.822795317125437
Na    0.0    0.0    8.590097193958695
Na    0.0    0.0    14.336986218356039

--Link1--

%NProcShared=16
%mem=12GB
%Chk=checkpoint.chk
#p B3LYP/6-311+g(d) force

Test

0 1
Na    0.0    0.0    0.0
Na    0.0    0.0    4.180588474940111
Na    0.0    0.0    7.7881187768641205
Na    0.0    0.0    12.806673922351685

--Link1--

%NProcShared=16
%mem=12GB
%Chk=checkpoint.chk
#p B3LYP/6-311+g(d) force

Test

0 1
Na    0.0    0.0    0.0
Na    0.0    0.0    3.596846817266367
Na    0.0    0.0    8.320950424066126
Na    0.0    0.0    10.89416150766052

--Link1--

%NProcShared=16
%mem=12GB
%Chk=checkpoint.chk
#p B3LYP/6-311+g(d) force

Test

0 1
Na    0.0    0.0    0.0
Na    0.0    0.0    3.164016599945233
Na    0.0    0.0    5.518900959419597
Na    0.0    0.0    9.208796526553451

--Link1--

%NProcShared=16
%mem=12GB
%Chk=checkpoint.chk
#p B3LYP/6-311+g(d) force

Test

0 1
Na    0.0    0.0    0.0
Na    0.0    0.0    2.4290080924070154
Na    0.0    0.0    7.901818576563953
Na    0.0    0.0    10.141706995041247

--Link1--

%NProcShared=16
%mem=12GB
%Chk=checkpoint.chk
#p B3LYP/6-311+g(d) force

Test

0 1
Na    0.0    0.0    0.0
Na    0.0    0.0    3.611691107936868
Na    0.0    0.0    9.128517083548324
Na    0.0    0.0    11.809627129059251

--Link1--

%NProcShared=16
%mem=12GB
%Chk=checkpoint.chk
#p B3LYP/6-311+g(d) force

Test

0 1
Na    0.0    0.0    0.0
Na    0.0    0.0    4.999128725084242
Na    0.0    0.0    8.388599572623875
Na    0.0    0.0    11.114734463068288

--Link1--

%NProcShared=16
%mem=12GB
%Chk=checkpoint.chk
#p B3LYP/6-311+g(d) force

Test

0 1
Na    0.0    0.0    0.0
Na    0.0    0.0    4.193388312860731
Na    0.0    0.0    8.892105523646705
Na    0.0    0.0    11.2279878958179

--Link1--

%NProcShared=16
%mem=12GB
%Chk=checkpoint.chk
#p B3LYP/6-311+g(d) force

Test

0 1
Na    0.0    0.0    0.0
Na    0.0    0.0    5.510539036604003
Na    0.0    0.0    8.985608881610897
Na    0.0    0.0    13.837885846641747

--Link1--

%NProcShared=16
%mem=12GB
%Chk=checkpoint.chk
#p B3LYP/6-311+g(d) force

Test

0 1
Na    0.0    0.0    0.0
Na    0.0    0.0    4.865796249520411
Na    0.0    0.0    9.97278597871944
Na    0.0    0.0    13.623665026589553

--Link1--

%NProcShared=16
%mem=12GB
%Chk=checkpoint.chk
#p B3LYP/6-311+g(d) force

Test

0 1
Na    0.0    0.0    0.0
Na    0.0    0.0    2.9382214328172522
Na    0.0    0.0    6.602316897915995
Na    0.0    0.0    9.541768049047091

--Link1--

%NProcShared=16
%mem=12GB
%Chk=checkpoint.chk
#p B3LYP/6-311+g(d) force

Test

0 1
Na    0.0    0.0    0.0
Na    0.0    0.0    3.128781096533075
Na    0.0    0.0    8.033966547331676
Na    0.0    0.0    10.611106130957815

--Link1--

%NProcShared=16
%mem=12GB
%Chk=checkpoint.chk
#p B3LYP/6-311+g(d) force

Test

0 1
Na    0.0    0.0    0.0
Na    0.0    0.0    3.5610337418877096
Na    0.0    0.0    7.062037559433319
Na    0.0    0.0    11.77425058350077

--Link1--

%NProcShared=16
%mem=12GB
%Chk=checkpoint.chk
#p B3LYP/6-311+g(d) force

Test

0 1
Na    0.0    0.0    0.0
Na    0.0    0.0    3.2495179621696746
Na    0.0    0.0    7.41155308500815
Na    0.0    0.0    11.662135767419606

--Link1--

%NProcShared=16
%mem=12GB
%Chk=checkpoint.chk
#p B3LYP/6-311+g(d) force

Test

0 1
Na    0.0    0.0    0.0
Na    0.0    0.0    5.253667660409179
Na    0.0    0.0    7.905178183040629
Na    0.0    0.0    12.897588508331918

--Link1--

%NProcShared=16
%mem=12GB
%Chk=checkpoint.chk
#p B3LYP/6-311+g(d) force

Test

0 1
Na    0.0    0.0    0.0
Na    0.0    0.0    3.32085296293263
Na    0.0    0.0    5.917833363095381
Na    0.0    0.0    10.916950671494629

--Link1--

%NProcShared=16
%mem=12GB
%Chk=checkpoint.chk
#p B3LYP/6-311+g(d) force

Test

0 1
Na    0.0    0.0    0.0
Na    0.0    0.0    2.5884753007030477
Na    0.0    0.0    4.982012383302647
Na    0.0    0.0    7.368888044478252

--Link1--

%NProcShared=16
%mem=12GB
%Chk=checkpoint.chk
#p B3LYP/6-311+g(d) force

Test

0 1
Na    0.0    0.0    0.0
Na    0.0    0.0    3.2537649573696337
Na    0.0    0.0    8.93138275474714
Na    0.0    0.0    13.862795659434674

--Link1--

%NProcShared=16
%mem=12GB
%Chk=checkpoint.chk
#p B3LYP/6-311+g(d) force

Test

0 1
Na    0.0    0.0    0.0
Na    0.0    0.0    2.7086088668965456
Na    0.0    0.0    5.616622153939048
Na    0.0    0.0    10.677716278105475

--Link1--

%NProcShared=16
%mem=12GB
%Chk=checkpoint.chk
#p B3LYP/6-311+g(d) force

Test

0 1
Na    0.0    0.0    0.0
Na    0.0    0.0    4.174306563254053
Na    0.0    0.0    7.540570488386174
Na    0.0    0.0    10.574700889363939

--Link1--

%NProcShared=16
%mem=12GB
%Chk=checkpoint.chk
#p B3LYP/6-311+g(d) force

Test

0 1
Na    0.0    0.0    0.0
Na    0.0    0.0    3.634303212895234
Na    0.0    0.0    8.982173892758407
Na    0.0    0.0    12.721428518322305

--Link1--

%NProcShared=16
%mem=12GB
%Chk=checkpoint.chk
#p B3LYP/6-311+g(d) force

Test

0 1
Na    0.0    0.0    0.0
Na    0.0    0.0    4.11421066264675
Na    0.0    0.0    9.507234100268361
Na    0.0    0.0    13.865001745067367

--Link1--

%NProcShared=16
%mem=12GB
%Chk=checkpoint.chk
#p B3LYP/6-311+g(d) force

Test

0 1
Na    0.0    0.0    0.0
Na    0.0    0.0    5.343801559613848
Na    0.0    0.0    9.936746044567688
Na    0.0    0.0    12.863963835869388

--Link1--

%NProcShared=16
%mem=12GB
%Chk=checkpoint.chk
#p B3LYP/6-311+g(d) force

Test

0 1
Na    0.0    0.0    0.0
Na    0.0    0.0    3.7433238107386204
Na    0.0    0.0    7.417390700109828
Na    0.0    0.0    11.828508552566973

--Link1--

%NProcShared=16
%mem=12GB
%Chk=checkpoint.chk
#p B3LYP/6-311+g(d) force

Test

0 1
Na    0.0    0.0    0.0
Na    0.0    0.0    5.489652251092942
Na    0.0    0.0    8.10479247529678
Na    0.0    0.0    12.690189694847003

--Link1--

%NProcShared=16
%mem=12GB
%Chk=checkpoint.chk
#p B3LYP/6-311+g(d) force

Test

0 1
Na    0.0    0.0    0.0
Na    0.0    0.0    4.730730524175593
Na    0.0    0.0    8.408825640389317
Na    0.0    0.0    13.604259304015589

--Link1--

%NProcShared=16
%mem=12GB
%Chk=checkpoint.chk
#p B3LYP/6-311+g(d) force

Test

0 1
Na    0.0    0.0    0.0
Na    0.0    0.0    5.400270552990707
Na    0.0    0.0    9.48752295435427
Na    0.0    0.0    14.591804256663533

--Link1--

%NProcShared=16
%mem=12GB
%Chk=checkpoint.chk
#p B3LYP/6-311+g(d) force

Test

0 1
Na    0.0    0.0    0.0
Na    0.0    0.0    2.97692797514485
Na    0.0    0.0    6.769680560718574
Na    0.0    0.0    9.888918403798556

--Link1--

%NProcShared=16
%mem=12GB
%Chk=checkpoint.chk
#p B3LYP/6-311+g(d) force

Test

0 1
Na    0.0    0.0    0.0
Na    0.0    0.0    5.273673380938414
Na    0.0    0.0    9.171391458490517
Na    0.0    0.0    14.163918587901037

--Link1--

%NProcShared=16
%mem=12GB
%Chk=checkpoint.chk
#p B3LYP/6-311+g(d) force

Test

0 1
Na    0.0    0.0    0.0
Na    0.0    0.0    5.692005234973484
Na    0.0    0.0    9.716460040367682
Na    0.0    0.0    12.69573631031972

--Link1--

%NProcShared=16
%mem=12GB
%Chk=checkpoint.chk
#p B3LYP/6-311+g(d) force

Test

0 1
Na    0.0    0.0    0.0
Na    0.0    0.0    4.085751941221692
Na    0.0    0.0    6.7561782608404775
Na    0.0    0.0    12.227825530024194

--Link1--

%NProcShared=16
%mem=12GB
%Chk=checkpoint.chk
#p B3LYP/6-311+g(d) force

Test

0 1
Na    0.0    0.0    0.0
Na    0.0    0.0    4.8855754266029265
Na    0.0    0.0    10.33730533286381
Na    0.0    0.0    12.9862879360916

--Link1--

%NProcShared=16
%mem=12GB
%Chk=checkpoint.chk
#p B3LYP/6-311+g(d) force

Test

0 1
Na    0.0    0.0    0.0
Na    0.0    0.0    4.534157225951341
Na    0.0    0.0    8.528424952039037
Na    0.0    0.0    12.802292712639861

--Link1--

%NProcShared=16
%mem=12GB
%Chk=checkpoint.chk
#p B3LYP/6-311+g(d) force

Test

0 1
Na    0.0    0.0    0.0
Na    0.0    0.0    2.2832202258418453
Na    0.0    0.0    8.019937832008441
Na    0.0    0.0    12.34961031346323

--Link1--

%NProcShared=16
%mem=12GB
%Chk=checkpoint.chk
#p B3LYP/6-311+g(d) force

Test

0 1
Na    0.0    0.0    0.0
Na    0.0    0.0    4.194627421884048
Na    0.0    0.0    6.9227805111201
Na    0.0    0.0    12.638577228645264

--Link1--

%NProcShared=16
%mem=12GB
%Chk=checkpoint.chk
#p B3LYP/6-311+g(d) force

Test

0 1
Na    0.0    0.0    0.0
Na    0.0    0.0    4.609568342263855
Na    0.0    0.0    6.940874465102098
Na    0.0    0.0    9.892064239470695

--Link1--

%NProcShared=16
%mem=12GB
%Chk=checkpoint.chk
#p B3LYP/6-311+g(d) force

Test

0 1
Na    0.0    0.0    0.0
Na    0.0    0.0    2.3590671419811695
Na    0.0    0.0    7.473319037707385
Na    0.0    0.0    11.284592029438869

--Link1--

%NProcShared=16
%mem=12GB
%Chk=checkpoint.chk
#p B3LYP/6-311+g(d) force

Test

0 1
Na    0.0    0.0    0.0
Na    0.0    0.0    3.0883630639783823
Na    0.0    0.0    5.555684418649502
Na    0.0    0.0    10.72246881352989

--Link1--

%NProcShared=16
%mem=12GB
%Chk=checkpoint.chk
#p B3LYP/6-311+g(d) force

Test

0 1
Na    0.0    0.0    0.0
Na    0.0    0.0    5.76062856571423
Na    0.0    0.0    8.400016869746095
Na    0.0    0.0    11.164105095580293

--Link1--

%NProcShared=16
%mem=12GB
%Chk=checkpoint.chk
#p B3LYP/6-311+g(d) force

Test

0 1
Na    0.0    0.0    0.0
Na    0.0    0.0    5.16843976188753
Na    0.0    0.0    8.316228205043064
Na    0.0    0.0    10.59842058654137

--Link1--

%NProcShared=16
%mem=12GB
%Chk=checkpoint.chk
#p B3LYP/6-311+g(d) force

Test

0 1
Na    0.0    0.0    0.0
Na    0.0    0.0    5.614064904408376
Na    0.0    0.0    8.509350917007072
Na    0.0    0.0    12.871334541487965

--Link1--

%NProcShared=16
%mem=12GB
%Chk=checkpoint.chk
#p B3LYP/6-311+g(d) force

Test

0 1
Na    0.0    0.0    0.0
Na    0.0    0.0    4.23625732142017
Na    0.0    0.0    6.849071984460895
Na    0.0    0.0    11.804639021093589

--Link1--

%NProcShared=16
%mem=12GB
%Chk=checkpoint.chk
#p B3LYP/6-311+g(d) force

Test

0 1
Na    0.0    0.0    0.0
Na    0.0    0.0    2.8632479363039187
Na    0.0    0.0    6.108861018485605
Na    0.0    0.0    11.350088760029568

--Link1--

%NProcShared=16
%mem=12GB
%Chk=checkpoint.chk
#p B3LYP/6-311+g(d) force

Test

0 1
Na    0.0    0.0    0.0
Na    0.0    0.0    2.9598544080342823
Na    0.0    0.0    7.456845422193783
Na    0.0    0.0    11.3394858149247

--Link1--

%NProcShared=16
%mem=12GB
%Chk=checkpoint.chk
#p B3LYP/6-311+g(d) force

Test

0 1
Na    0.0    0.0    0.0
Na    0.0    0.0    4.943894569061124
Na    0.0    0.0    7.977068839573332
Na    0.0    0.0    10.872461466426728

--Link1--

%NProcShared=16
%mem=12GB
%Chk=checkpoint.chk
#p B3LYP/6-311+g(d) force

Test

0 1
Na    0.0    0.0    0.0
Na    0.0    0.0    3.3077866751080576
Na    0.0    0.0    7.278830733981594
Na    0.0    0.0    12.371770860321508

--Link1--

%NProcShared=16
%mem=12GB
%Chk=checkpoint.chk
#p B3LYP/6-311+g(d) force

Test

0 1
Na    0.0    0.0    0.0
Na    0.0    0.0    3.2238022927770826
Na    0.0    0.0    8.567983548663026
Na    0.0    0.0    12.556222099421184

--Link1--

%NProcShared=16
%mem=12GB
%Chk=checkpoint.chk
#p B3LYP/6-311+g(d) force

Test

0 1
Na    0.0    0.0    0.0
Na    0.0    0.0    4.798440529247118
Na    0.0    0.0    10.2891807566286
Na    0.0    0.0    14.867198759640306

--Link1--

%NProcShared=16
%mem=12GB
%Chk=checkpoint.chk
#p B3LYP/6-311+g(d) force

Test

0 1
Na    0.0    0.0    0.0
Na    0.0    0.0    2.321934744978007
Na    0.0    0.0    5.056478888001025
Na    0.0    0.0    9.762224442740816

--Link1--

%NProcShared=16
%mem=12GB
%Chk=checkpoint.chk
#p B3LYP/6-311+g(d) force

Test

0 1
Na    0.0    0.0    0.0
Na    0.0    0.0    3.651813926157165
Na    0.0    0.0    7.119146658624952
Na    0.0    0.0    11.901088803707097

--Link1--

%NProcShared=16
%mem=12GB
%Chk=checkpoint.chk
#p B3LYP/6-311+g(d) force

Test

0 1
Na    0.0    0.0    0.0
Na    0.0    0.0    3.367800628699555
Na    0.0    0.0    5.609133822597244
Na    0.0    0.0    9.164983347639915

--Link1--

%NProcShared=16
%mem=12GB
%Chk=checkpoint.chk
#p B3LYP/6-311+g(d) force

Test

0 1
Na    0.0    0.0    0.0
Na    0.0    0.0    3.512369356891824
Na    0.0    0.0    8.827010621357012
Na    0.0    0.0    11.186106569598905

--Link1--

%NProcShared=16
%mem=12GB
%Chk=checkpoint.chk
#p B3LYP/6-311+g(d) force

Test

0 1
Na    0.0    0.0    0.0
Na    0.0    0.0    2.883106377953852
Na    0.0    0.0    7.701494530121674
Na    0.0    0.0    11.353025672587552

--Link1--

%NProcShared=16
%mem=12GB
%Chk=checkpoint.chk
#p B3LYP/6-311+g(d) force

Test

0 1
Na    0.0    0.0    0.0
Na    0.0    0.0    3.607038566907418
Na    0.0    0.0    8.608851439461331
Na    0.0    0.0    13.964728594609625

--Link1--

%NProcShared=16
%mem=12GB
%Chk=checkpoint.chk
#p B3LYP/6-311+g(d) force

Test

0 1
Na    0.0    0.0    0.0
Na    0.0    0.0    4.799446477432826
Na    0.0    0.0    9.283206677332144
Na    0.0    0.0    11.639784817228087

--Link1--

%NProcShared=16
%mem=12GB
%Chk=checkpoint.chk
#p B3LYP/6-311+g(d) force

Test

0 1
Na    0.0    0.0    0.0
Na    0.0    0.0    2.7800874986282182
Na    0.0    0.0    5.514745536332476
Na    0.0    0.0    8.853204526201818

--Link1--

%NProcShared=16
%mem=12GB
%Chk=checkpoint.chk
#p B3LYP/6-311+g(d) force

Test

0 1
Na    0.0    0.0    0.0
Na    0.0    0.0    4.397755495287489
Na    0.0    0.0    8.223510764935227
Na    0.0    0.0    12.79575781468278

--Link1--

%NProcShared=16
%mem=12GB
%Chk=checkpoint.chk
#p B3LYP/6-311+g(d) force

Test

0 1
Na    0.0    0.0    0.0
Na    0.0    0.0    5.243230327382694
Na    0.0    0.0    7.647262173615858
Na    0.0    0.0    10.53483905889864

--Link1--

%NProcShared=16
%mem=12GB
%Chk=checkpoint.chk
#p B3LYP/6-311+g(d) force

Test

0 1
Na    0.0    0.0    0.0
Na    0.0    0.0    3.4312472439885235
Na    0.0    0.0    5.9523345523361755
Na    0.0    0.0    10.266245424592178

--Link1--

%NProcShared=16
%mem=12GB
%Chk=checkpoint.chk
#p B3LYP/6-311+g(d) force

Test

0 1
Na    0.0    0.0    0.0
Na    0.0    0.0    3.41345984005729
Na    0.0    0.0    5.74892184019916
Na    0.0    0.0    8.129259544589296

--Link1--

%NProcShared=16
%mem=12GB
%Chk=checkpoint.chk
#p B3LYP/6-311+g(d) force

Test

0 1
Na    0.0    0.0    0.0
Na    0.0    0.0    3.472372236572002
Na    0.0    0.0    7.380807660618206
Na    0.0    0.0    10.832895220362865

--Link1--

%NProcShared=16
%mem=12GB
%Chk=checkpoint.chk
#p B3LYP/6-311+g(d) force

Test

0 1
Na    0.0    0.0    0.0
Na    0.0    0.0    5.346888768005217
Na    0.0    0.0    11.139168160535398
Na    0.0    0.0    16.902552559236

--Link1--

%NProcShared=16
%mem=12GB
%Chk=checkpoint.chk
#p B3LYP/6-311+g(d) force

Test

0 1
Na    0.0    0.0    0.0
Na    0.0    0.0    5.547548112946707
Na    0.0    0.0    8.345702685810915
Na    0.0    0.0    10.631075994830326

--Link1--

%NProcShared=16
%mem=12GB
%Chk=checkpoint.chk
#p B3LYP/6-311+g(d) force

Test

0 1
Na    0.0    0.0    0.0
Na    0.0    0.0    5.23226914681573
Na    0.0    0.0    8.05642989149346
Na    0.0    0.0    11.859736619365119

--Link1--

%NProcShared=16
%mem=12GB
%Chk=checkpoint.chk
#p B3LYP/6-311+g(d) force

Test

0 1
Na    0.0    0.0    0.0
Na    0.0    0.0    4.837199266110022
Na    0.0    0.0    8.172170288722732
Na    0.0    0.0    10.941396042653604

--Link1--

%NProcShared=16
%mem=12GB
%Chk=checkpoint.chk
#p B3LYP/6-311+g(d) force

Test

0 1
Na    0.0    0.0    0.0
Na    0.0    0.0    4.16798306406606
Na    0.0    0.0    7.418718805980957
Na    0.0    0.0    10.58274405711779

--Link1--

%NProcShared=16
%mem=12GB
%Chk=checkpoint.chk
#p B3LYP/6-311+g(d) force

Test

0 1
Na    0.0    0.0    0.0
Na    0.0    0.0    5.289476982101734
Na    0.0    0.0    9.792581890887003
Na    0.0    0.0    13.212562616813667

--Link1--

%NProcShared=16
%mem=12GB
%Chk=checkpoint.chk
#p B3LYP/6-311+g(d) force

Test

0 1
Na    0.0    0.0    0.0
Na    0.0    0.0    3.6292006095922407
Na    0.0    0.0    9.106497832561406
Na    0.0    0.0    14.472490768537543

--Link1--

%NProcShared=16
%mem=12GB
%Chk=checkpoint.chk
#p B3LYP/6-311+g(d) force

Test

0 1
Na    0.0    0.0    0.0
Na    0.0    0.0    3.819126145905099
Na    0.0    0.0    8.383590889444513
Na    0.0    0.0    12.808812314645323

--Link1--

%NProcShared=16
%mem=12GB
%Chk=checkpoint.chk
#p B3LYP/6-311+g(d) force

Test

0 1
Na    0.0    0.0    0.0
Na    0.0    0.0    3.9140924506731243
Na    0.0    0.0    9.4538744055845
Na    0.0    0.0    11.956852858988977

--Link1--

%NProcShared=16
%mem=12GB
%Chk=checkpoint.chk
#p B3LYP/6-311+g(d) force

Test

0 1
Na    0.0    0.0    0.0
Na    0.0    0.0    2.8271677506853465
Na    0.0    0.0    7.338639050706483
Na    0.0    0.0    11.631419761109349

--Link1--

%NProcShared=16
%mem=12GB
%Chk=checkpoint.chk
#p B3LYP/6-311+g(d) force

Test

0 1
Na    0.0    0.0    0.0
Na    0.0    0.0    4.26332726428079
Na    0.0    0.0    6.677030505849003
Na    0.0    0.0    11.177355185478245

--Link1--

%NProcShared=16
%mem=12GB
%Chk=checkpoint.chk
#p B3LYP/6-311+g(d) force

Test

0 1
Na    0.0    0.0    0.0
Na    0.0    0.0    5.632630608618868
Na    0.0    0.0    11.144392523444548
Na    0.0    0.0    14.194309729413654

--Link1--

%NProcShared=16
%mem=12GB
%Chk=checkpoint.chk
#p B3LYP/6-311+g(d) force

Test

0 1
Na    0.0    0.0    0.0
Na    0.0    0.0    3.6562080416572122
Na    0.0    0.0    7.848477032050532
Na    0.0    0.0    13.551228286703214

--Link1--

%NProcShared=16
%mem=12GB
%Chk=checkpoint.chk
#p B3LYP/6-311+g(d) force

Test

0 1
Na    0.0    0.0    0.0
Na    0.0    0.0    4.893817028647007
Na    0.0    0.0    8.62108650819123
Na    0.0    0.0    11.247766667827342

--Link1--

%NProcShared=16
%mem=12GB
%Chk=checkpoint.chk
#p B3LYP/6-311+g(d) force

Test

0 1
Na    0.0    0.0    0.0
Na    0.0    0.0    2.7304146907913815
Na    0.0    0.0    8.432993805218373
Na    0.0    0.0    11.764932003001746

--Link1--

%NProcShared=16
%mem=12GB
%Chk=checkpoint.chk
#p B3LYP/6-311+g(d) force

Test

0 1
Na    0.0    0.0    0.0
Na    0.0    0.0    4.909704189872047
Na    0.0    0.0    7.33758106371062
Na    0.0    0.0    12.03107171586478

--Link1--

%NProcShared=16
%mem=12GB
%Chk=checkpoint.chk
#p B3LYP/6-311+g(d) force

Test

0 1
Na    0.0    0.0    0.0
Na    0.0    0.0    5.269000903136705
Na    0.0    0.0    10.385320243162905
Na    0.0    0.0    15.42109565529724

--Link1--

%NProcShared=16
%mem=12GB
%Chk=checkpoint.chk
#p B3LYP/6-311+g(d) force

Test

0 1
Na    0.0    0.0    0.0
Na    0.0    0.0    4.157804397236336
Na    0.0    0.0    9.440280965659374
Na    0.0    0.0    11.851491207743017

--Link1--

%NProcShared=16
%mem=12GB
%Chk=checkpoint.chk
#p B3LYP/6-311+g(d) force

Test

0 1
Na    0.0    0.0    0.0
Na    0.0    0.0    2.278098323026115
Na    0.0    0.0    7.27802543814112
Na    0.0    0.0    9.617447105853175

--Link1--

%NProcShared=16
%mem=12GB
%Chk=checkpoint.chk
#p B3LYP/6-311+g(d) force

Test

0 1
Na    0.0    0.0    0.0
Na    0.0    0.0    3.5597809016780815
Na    0.0    0.0    7.929799841570875
Na    0.0    0.0    12.858679821249808

--Link1--

%NProcShared=16
%mem=12GB
%Chk=checkpoint.chk
#p B3LYP/6-311+g(d) force

Test

0 1
Na    0.0    0.0    0.0
Na    0.0    0.0    2.8693891359131216
Na    0.0    0.0    8.406647412172276
Na    0.0    0.0    11.497714911172242

--Link1--

%NProcShared=16
%mem=12GB
%Chk=checkpoint.chk
#p B3LYP/6-311+g(d) force

Test

0 1
Na    0.0    0.0    0.0
Na    0.0    0.0    3.6604460550492206
Na    0.0    0.0    8.196373300808295
Na    0.0    0.0    12.871010451391044

--Link1--

%NProcShared=16
%mem=12GB
%Chk=checkpoint.chk
#p B3LYP/6-311+g(d) force

Test

0 1
Na    0.0    0.0    0.0
Na    0.0    0.0    5.636375424107793
Na    0.0    0.0    10.429074117653826
Na    0.0    0.0    13.801109532334735

--Link1--

%NProcShared=16
%mem=12GB
%Chk=checkpoint.chk
#p B3LYP/6-311+g(d) force

Test

0 1
Na    0.0    0.0    0.0
Na    0.0    0.0    5.180278590597217
Na    0.0    0.0    8.19636964412522
Na    0.0    0.0    10.812774886664798

--Link1--

%NProcShared=16
%mem=12GB
%Chk=checkpoint.chk
#p B3LYP/6-311+g(d) force

Test

0 1
Na    0.0    0.0    0.0
Na    0.0    0.0    2.6109986030249392
Na    0.0    0.0    7.711433999816353
Na    0.0    0.0    13.50437605600127

--Link1--

%NProcShared=16
%mem=12GB
%Chk=checkpoint.chk
#p B3LYP/6-311+g(d) force

Test

0 1
Na    0.0    0.0    0.0
Na    0.0    0.0    3.6903290280425205
Na    0.0    0.0    7.254912940003059
Na    0.0    0.0    12.86823896329263

--Link1--

%NProcShared=16
%mem=12GB
%Chk=checkpoint.chk
#p B3LYP/6-311+g(d) force

Test

0 1
Na    0.0    0.0    0.0
Na    0.0    0.0    5.303334144984023
Na    0.0    0.0    9.333450960633508
Na    0.0    0.0    12.424897877659035

--Link1--

%NProcShared=16
%mem=12GB
%Chk=checkpoint.chk
#p B3LYP/6-311+g(d) force

Test

0 1
Na    0.0    0.0    0.0
Na    0.0    0.0    5.273242902763415
Na    0.0    0.0    9.604913884750978
Na    0.0    0.0    11.82901399104378

--Link1--

%NProcShared=16
%mem=12GB
%Chk=checkpoint.chk
#p B3LYP/6-311+g(d) force

Test

0 1
Na    0.0    0.0    0.0
Na    0.0    0.0    5.761586426725904
Na    0.0    0.0    11.493930747187964
Na    0.0    0.0    14.14295325825293

--Link1--

%NProcShared=16
%mem=12GB
%Chk=checkpoint.chk
#p B3LYP/6-311+g(d) force

Test

0 1
Na    0.0    0.0    0.0
Na    0.0    0.0    5.0354835614854405
Na    0.0    0.0    9.814461837782133
Na    0.0    0.0    14.400581478028755

--Link1--

%NProcShared=16
%mem=12GB
%Chk=checkpoint.chk
#p B3LYP/6-311+g(d) force

Test

0 1
Na    0.0    0.0    0.0
Na    0.0    0.0    2.6363551240815473
Na    0.0    0.0    6.50044857790664
Na    0.0    0.0    8.798988612033135

--Link1--

%NProcShared=16
%mem=12GB
%Chk=checkpoint.chk
#p B3LYP/6-311+g(d) force

Test

0 1
Na    0.0    0.0    0.0
Na    0.0    0.0    4.7863322188042625
Na    0.0    0.0    9.939620523252742
Na    0.0    0.0    14.280865261011485

--Link1--

%NProcShared=16
%mem=12GB
%Chk=checkpoint.chk
#p B3LYP/6-311+g(d) force

Test

0 1
Na    0.0    0.0    0.0
Na    0.0    0.0    5.471096368578686
Na    0.0    0.0    9.888131354409232
Na    0.0    0.0    12.264824880789394

--Link1--

%NProcShared=16
%mem=12GB
%Chk=checkpoint.chk
#p B3LYP/6-311+g(d) force

Test

0 1
Na    0.0    0.0    0.0
Na    0.0    0.0    4.292969671457556
Na    0.0    0.0    7.487887476216462
Na    0.0    0.0    11.48269461060088

--Link1--

%NProcShared=16
%mem=12GB
%Chk=checkpoint.chk
#p B3LYP/6-311+g(d) force

Test

0 1
Na    0.0    0.0    0.0
Na    0.0    0.0    5.590191198753718
Na    0.0    0.0    9.474380645537403
Na    0.0    0.0    13.854621598040286

