%mem=14GB
%chk=checkpoint.chk
%nprocshared=16
#P B3LYP/6-311+g(d) force ! ASE formatted method and basis

Gaussian input prepared by ASE

0 2
Na                2.6566990019        0.8070000165        3.5027340228
Na                1.9719632346        0.0828664285        0.9999918086
Na                4.8101199739        0.0000000000        1.8179314473
Na                5.1504161974        2.8708259071        2.2887816358
Na                2.2936633421        2.5762872514        0.0000000000
Na                2.2585275783        3.3132118817        2.6003139531
Na                0.0000000000        1.4983205778        2.5709756353


