%mem=14GB
%chk=checkpoint.chk
%nprocshared=16
#P B3LYP/6-311+g(d) force ! ASE formatted method and basis

Gaussian input prepared by ASE

0 2
Na                5.9064315365        2.8369735860        0.7974421436
Na                0.0000000000        3.1307671997        0.1504499899
Na                6.4780605868        0.0000000000        0.0000000000
Na                4.0559945991        0.6366849327        1.6467725620
Na                2.9948124862        2.9681690559        0.0813968558
Na                4.2939516151        5.2588572138        1.5209647038
Na                6.9044175490        5.5758704428        0.0803471515


