%mem=14GB
%chk=checkpoint.chk
%nprocshared=16
#P B3LYP/6-311+g(d) force ! ASE formatted method and basis

Gaussian input prepared by ASE

0 2
Na                2.7525788785        2.3434598967        0.0000000000
Na                1.9254437012        0.0000000000        1.4913762106
Na                4.8880359029        0.8121246057        1.2594190743
Na                4.8825760695        3.8803670683        1.2595595934
Na                2.4964182721        2.3464620198        3.1701866785
Na                1.9208606218        4.6869615504        1.4887625633
Na                0.0000000000        2.3406615896        0.9596765616


