%mem=14GB
%chk=checkpoint.chk
%nprocshared=16
#P B3LYP/6-311+g(d) force ! ASE formatted method and basis

Gaussian input prepared by ASE

0 2
Na                4.7474192601        4.6685144562        0.0000000000
Na                7.6455144252        4.4249036603        0.7419905785
Na                3.3291527459        0.0000000000        1.3827091423
Na                3.8652453779        2.8317391968        2.2073101447
Na                5.6145273456        5.1923908078        2.8160484251
Na                2.7483043070        5.6080235934        2.0284941857
Na                0.0000000000        5.2003336012        0.8897756282


