%mem=14GB
%chk=checkpoint.chk
%nprocshared=16
#P B3LYP/6-311+g(d) force ! ASE formatted method and basis

Gaussian input prepared by ASE

0 2
Na                2.4508557189        1.9787830875        0.0000000000
Na                2.4517113453        1.9783303691        3.5744471923
Na                0.0000000000        1.9825799307        1.7876605798
Na                1.8284828804        3.9616339983        1.7876678814
Na                4.3255174970        3.2814267948        1.7871128983
Na                1.8238350130        0.0000000000        1.7871851446
Na                4.3228921902        0.6757484104        1.7872271655


