%mem=14GB
%chk=checkpoint.chk
%nprocshared=16
#P B3LYP/6-311+g(d) force ! ASE formatted method and basis

Gaussian input prepared by ASE

0 2
Na                2.6051718362        0.0894717590        1.2046097619
Na                4.1253829259        2.0993078890        0.0000000000
Na                0.0000000000        1.1954338535        1.6580794259
Na                2.3416840049        2.7766183192        2.1426559144
Na                5.1960372159        2.6946769514        2.3583504289
Na                3.6911049176        0.6787959370        3.5624886829
Na                5.4632549991        0.0000000000        1.4173536499


