%mem=14GB
%chk=checkpoint.chk
%nprocshared=16
#P B3LYP/6-311+g(d) force ! ASE formatted method and basis

Gaussian input prepared by ASE

0 2
Na                1.9056949736        1.2141115693        2.1197165358
Na                0.0000000000        2.1460939987        0.0000000000
Na                3.3313603278        5.5383378832        3.1611251117
Na                2.2605746210        3.9150746119        0.8756348043
Na                4.5151161570        0.0000000000        2.9633611903
Na                4.4141276625        1.8396643418        0.5963314784
Na                7.0844892690        3.0818693373        0.0194106960


