%mem=14GB
%chk=checkpoint.chk
%nprocshared=16
#P B3LYP/6-311+g(d) force ! ASE formatted method and basis

Gaussian input prepared by ASE

0 2
Na                1.8770180804        2.3758887899        0.0000000000
Na                3.8959220320        0.5385309596        1.2478813452
Na                6.3681095462        1.7699987877        2.4193379975
Na                4.6589203689        3.3509794881        0.5304344851
Na                2.3306443674        4.6089659948        1.9509728677
Na                0.0000000000        2.7484612811        2.3081054118
Na                0.9619348094        0.0000000000        1.5785928371


