%mem=14GB
%chk=checkpoint.chk
%nprocshared=16
#P B3LYP/6-311+g(d) force ! ASE formatted method and basis

Gaussian input prepared by ASE

0 2
Na                2.0709742949        2.0744361772        2.7041080587
Na                4.5115832405        3.6454243859        1.9341668237
Na                0.2994735344        4.4062946748        2.0329286948
Na                2.2345358926        3.3445413938        0.0000000000
Na                4.6715462239        0.6646911962        2.2013248110
Na                2.3899274367        0.3559461678        0.2755625775
Na                0.0000000000        0.0000000000        2.0486212423


