%mem=14GB
%chk=checkpoint.chk
%nprocshared=16
#P B3LYP/6-311+g(d) force ! ASE formatted method and basis

Gaussian input prepared by ASE

0 2
Na                2.6976170181        1.8206900990        0.0000000000
Na                1.9528867302        0.0000000000        1.6581243032
Na                0.0000000000        1.7285924769        1.7868124562
Na                1.8530241007        3.5713112729        1.6784606532
Na                2.6346256870        1.6953676912        3.4850384122
Na                4.4047316827        3.0977717701        1.8490863264
Na                4.4959233239        0.5526987824        1.7060838321


