%mem=14GB
%chk=checkpoint.chk
%nprocshared=16
#P B3LYP/6-311+g(d) force ! ASE formatted method and basis

Gaussian input prepared by ASE

0 2
Na                1.3609566240        3.9402558194        1.9175384082
Na                2.0317972912        2.0398604600        3.7257925077
Na                1.8714610207        1.7868790220        0.0000000000
Na                0.0000000000        1.1969745210        1.8570573655
Na                2.8072764069        0.0000000000        2.1248976873
Na                4.1208587673        2.7014585494        1.7585811881
Na                6.8200024057        1.8763345755        1.8341771109


