%mem=14GB
%chk=checkpoint.chk
%nprocshared=16
#P B3LYP/6-311+g(d) force ! ASE formatted method and basis

Gaussian input prepared by ASE

0 2
Na                2.4120627141        1.5193900200        0.0000000000
Na                2.3186289184        0.0000000000        2.2770287795
Na                0.0000000000        1.5142495211        1.5444301839
Na                2.3262201664        3.0158066737        2.2905766310
Na                4.4014785192        1.5000602572        3.2331483134
Na                4.6514511242        2.8705854147        0.8590804432
Na                4.6451991629        0.1550225244        0.8458128410


