%mem=14GB
%chk=checkpoint.chk
%nprocshared=16
#P B3LYP/6-311+g(d) force ! ASE formatted method and basis

Gaussian input prepared by ASE

0 2
Na                2.9569020846        0.8428182908        1.0340350827
Na                5.2085725680        0.0000000000        2.8141339677
Na                5.7770369711        0.8735329928        0.0000000000
Na                6.3856928871        3.5759822098        1.1655018075
Na                4.1270424629        2.7978014343        2.9877494137
Na                1.8153716196        3.6020050185        1.2512172969
Na                0.0000000000        1.2202006545        1.3416252602


