%mem=14GB
%chk=checkpoint.chk
%nprocshared=16
#P B3LYP/6-311+g(d) force ! ASE formatted method and basis

Gaussian input prepared by ASE

0 2
Na                5.2321875717        0.0000000000        1.4701351752
Na                7.8447688120        0.1811529347        0.0000000000
Na                7.8017935269        0.3308142581        2.9891200028
Na                7.9642997875        2.8526770276        1.3663304661
Na                4.9652250376        2.9934421200        1.3631612951
Na                2.6786980557        1.3131005922        2.3193593649
Na                0.0000000000        0.9816260999        1.0197487457


