%mem=14GB
%chk=checkpoint.chk
%nprocshared=16
#P B3LYP/6-311+g(d) force ! ASE formatted method and basis

Gaussian input prepared by ASE

0 2
Na                1.5615306739        1.6133372087        3.6580944242
Na                3.1314148964        0.0000000000        1.9942976076
Na                5.7146211243        1.3646432229        1.8398005960
Na                3.3817175156        3.1032707796        2.1273828611
Na                1.8365647933        1.5178123009        0.0000000000
Na                0.2802898302        3.1415953077        1.6988450163
Na                0.0000000000        0.0326271731        1.9462305159


