%mem=14GB
%chk=checkpoint.chk
%nprocshared=16
#P B3LYP/6-311+g(d) force ! ASE formatted method and basis

Gaussian input prepared by ASE

0 2
Na                4.6025007605        1.9872941389        0.0000000000
Na                6.5975893887        0.0000000000        1.0451364702
Na                8.6634837695        2.1751082098        1.1826284646
Na                6.5611130291        4.2061195588        0.5008412744
Na                3.9930180751        4.0895883380        2.0446706740
Na                1.8691080747        3.2153523603        0.1185586881
Na                0.0000000000        1.2216403553        1.3550498412


