%mem=14GB
%chk=checkpoint.chk
%nprocshared=16
#P B3LYP/6-311+g(d) force ! ASE formatted method and basis

Gaussian input prepared by ASE

0 2
Na                2.2932732016        2.5256766431        0.0069232215
Na                4.0641414480        4.4378712640        1.4975692284
Na                5.2761146595        2.1491913582        0.0000000000
Na                5.2794155938        2.1566871648        3.0006942146
Na                1.6582134296        0.0000000000        1.5044914095
Na                2.2967761475        2.5279530177        2.9923011042
Na                0.0000000000        3.7663335592        1.5012524053


