%mem=14GB
%chk=checkpoint.chk
%nprocshared=16
#P B3LYP/6-311+g(d) force ! ASE formatted method and basis

Gaussian input prepared by ASE

0 2
Na                2.5392335174        1.1899400058        0.0000000000
Na                2.5260507612        0.0919542124        2.4960500611
Na                5.0004649469        0.0000000000        0.9876463008
Na                4.1331977441        2.2984050115        2.5458144279
Na                2.9828067688        3.8116025956        0.5952425684
Na                1.0801304473        2.6950387294        2.2636395403
Na                0.0000000000        0.2754581272        1.0726272903


