%mem=14GB
%chk=checkpoint.chk
%nprocshared=16
#P B3LYP/6-311+g(d) force ! ASE formatted method and basis

Gaussian input prepared by ASE

0 2
Na                2.6525281070        1.2997202915        2.6930801709
Na                4.0753088828        2.9666723220        0.6438785124
Na                5.6353519690        1.1308689062        2.4306714338
Na                3.8820616004        0.0000000000        0.2777614447
Na                1.5778744962        4.0010766532        1.9332202703
Na                1.4287395722        1.7092456322        0.0000000000
Na                0.0000000000        0.0425211245        2.0545362167


