%mem=14GB
%chk=checkpoint.chk
%nprocshared=16
#P B3LYP/6-311+g(d) force ! ASE formatted method and basis

Gaussian input prepared by ASE

0 2
Na                1.2834565231        1.9487482327        3.5786252488
Na                1.5488459776        1.9483261323        0.0000000000
Na                0.0000000000        3.8946716360        1.6857804006
Na                2.9661225288        3.7998136897        1.9029472132
Na                5.3197243917        1.9514143379        1.7411796227
Na                2.9699644193        0.0995707389        1.9035829644
Na                0.0048200880        0.0000000000        1.6857616315


