%mem=14GB
%chk=checkpoint.chk
%nprocshared=16
#P B3LYP/6-311+g(d) force ! ASE formatted method and basis

Gaussian input prepared by ASE

0 2
Na                2.0996569151        4.1699885743        2.3905109106
Na                4.1176019475        4.3847910766        4.5921836224
Na                0.0000000000        2.0408628335        2.6671843933
Na                2.1855117860        0.0000000000        2.9254721176
Na                3.7794485738        3.4974339154        0.0000000000
Na                4.2849389955        2.1301609644        2.6210081287
Na                7.2167524491        1.4957222104        2.5729676463


