%mem=14GB
%chk=checkpoint.chk
%nprocshared=16
#P B3LYP/6-311+g(d) force ! ASE formatted method and basis

Gaussian input prepared by ASE

0 2
Na                2.9696554959        0.5442743143        1.1782405066
Na                5.7161506457        0.8027305266        0.0000000000
Na                5.3947092674        0.0000000000        2.8683161317
Na                6.5176130292        2.6979973749        2.1778502427
Na                4.0755021610        3.2574197936        0.5243514796
Na                1.8337171787        2.9830316410        2.5018394508
Na                0.0000000000        0.9470912875        1.2839237571


