%mem=14GB
%chk=checkpoint.chk
%nprocshared=16
#P B3LYP/6-311+g(d) force ! ASE formatted method and basis

Gaussian input prepared by ASE

0 2
Na                5.3117663425        2.0870230773        0.0000000000
Na                5.3882483918        0.0000000000        1.8413392038
Na                0.0000000000        2.0662334649        1.9006383779
Na                2.8293539286        1.7427460928        1.2650488739
Na                4.4269450666        1.9643576388        3.5602523020
Na                4.2443798740        4.4630312473        1.7066331848
Na                6.7849701116        2.7885155066        2.2830694323


