%mem=14GB
%chk=checkpoint.chk
%nprocshared=16
#P B3LYP/6-311+g(d) force ! ASE formatted method and basis

Gaussian input prepared by ASE

0 2
Na                2.8063784084        5.9315049739        0.7547776311
Na                5.7272577913        5.9192692333        0.0942676917
Na                7.7845827484        1.5839282369        0.0199616800
Na                5.7580624381        3.2508692719        1.4580326249
Na                0.0000000000        2.8609825343        0.0000000000
Na                2.7862265857        2.9479185033        1.1143548738
Na                3.0851611381        0.0000000000        0.6325117240


