%mem=14GB
%chk=checkpoint.chk
%nprocshared=16
#P B3LYP/6-311+g(d) force ! ASE formatted method and basis

Gaussian input prepared by ASE

0 2
Na                3.0371595238        2.3026071582        2.9948265052
Na                1.2699656864        0.3639857694        1.5394855481
Na                0.0518890163        2.6760603242        3.0082695025
Na                0.0000000000        2.6009380018        0.0069145762
Na                4.2418259851        0.0000000000        1.4954195477
Na                2.9877433181        2.2781771688        0.0000000000
Na                4.0183587746        4.6897349143        1.4624061773


