%mem=14GB
%chk=checkpoint.chk
%nprocshared=16
#P B3LYP/6-311+g(d) force ! ASE formatted method and basis

Gaussian input prepared by ASE

0 2
Na                4.3554787714        0.0000000000        0.9292360677
Na                0.0000000000        3.4020398346        1.1214907854
Na                0.2050223550        0.5581448032        1.6736814682
Na                2.6109326774        2.1122939388        1.1427630151
Na                5.0598847604        1.6282127390        3.0221721958
Na                5.5198652616        2.3008974179        0.0000000000
Na                4.4518107045        4.0274099572        1.8422016888


