%mem=14GB
%chk=checkpoint.chk
%nprocshared=16
#P B3LYP/6-311+g(d) force ! ASE formatted method and basis

Gaussian input prepared by ASE

0 2
Na                2.7865827811        3.0422823246        2.3942028628
Na                0.5848534001        0.0000000000        0.0000000000
Na                0.5097495987        4.8363513341        1.6114733525
Na                0.0000000000        1.9447640435        2.2089195496
Na                2.3315408034        0.0764897018        2.4391905990
Na                5.1196172880        1.1656229709        2.2286608280
Na                4.8205338911        3.3607432361        0.2076335323


