%mem=14GB
%chk=checkpoint.chk
%nprocshared=16
#P B3LYP/6-311+g(d) force ! ASE formatted method and basis

Gaussian input prepared by ASE

0 2
Na                0.1793195084        1.5470435231        2.7566815039
Na                4.3658245793        0.0000000000        2.3199024922
Na                5.0569277171        3.8573737613        0.5069141286
Na                2.6463832082        2.1869989779        1.1748493308
Na                0.5198914685        0.4242938710        0.0000000000
Na                0.0000000000        3.3504619630        0.3713024598
Na                1.3501381623        4.3002667524        2.8722234740


