%mem=14GB
%chk=checkpoint.chk
%nprocshared=16
#P B3LYP/6-311+g(d) force ! ASE formatted method and basis

Gaussian input prepared by ASE

0 2
Na                2.0588831094        0.0000000000        0.9600841651
Na                2.2446433487        3.1214910253        0.8725939152
Na                0.0000000000        1.7213034399        2.0877080078
Na                2.5941581508        1.3228623527        3.3423800434
Na                4.2563167526        1.3769519215        0.0000000000
Na                4.8929113102        0.0858134937        2.3794412193
Na                4.9164877119        3.1879898334        2.4081532209


