%mem=14GB
%chk=checkpoint.chk
%nprocshared=16
#P B3LYP/6-311+g(d) force ! ASE formatted method and basis

Gaussian input prepared by ASE

0 2
Na                4.8117654016        0.7342350002        2.1597207020
Na                5.4428428465        2.7206191176        0.0000000000
Na                4.8791029732        3.0175167667        4.1084611955
Na                4.2556918867        4.8190565022        1.7907974568
Na                1.2615571625        4.9836789131        1.7466767443
Na                0.0000000000        2.2751390759        1.9791672181
Na                1.9371407074        0.0000000000        1.7322823856


