%mem=14GB
%chk=checkpoint.chk
%nprocshared=16
#P B3LYP/6-311+g(d) force ! ASE formatted method and basis

Gaussian input prepared by ASE

0 2
Na                4.8575711196        2.5637254306        3.1799830706
Na                4.6573796580        0.0000000000        1.6429467331
Na                7.5847410379        3.8144287647        2.9965417510
Na                7.4347057397        3.7241271668        0.0000000000
Na                4.6497135360        2.6228118382        0.1886017510
Na                2.8276166190        4.3280177966        1.8521174938
Na                0.0000000000        3.3938375576        1.4977045380


