%mem=14GB
%chk=checkpoint.chk
%nprocshared=16
#P B3LYP/6-311+g(d) force ! ASE formatted method and basis

Gaussian input prepared by ASE

0 2
Na                2.7540331507        2.3649411271        2.8135793833
Na                5.0533613624        1.8146224883        0.0000000000
Na                0.0000000000        2.1369391002        1.8535157643
Na                2.3009279854        2.3431179358        0.0584051413
Na                3.7092585829        0.0000000000        1.6423160440
Na                4.2039065800        4.3797351055        1.4717647418
Na                5.8175317804        2.0398705960        2.7099406228


