%mem=14GB
%chk=checkpoint.chk
%nprocshared=16
#P B3LYP/6-311+g(d) force ! ASE formatted method and basis

Gaussian input prepared by ASE

0 2
Na                2.5531321181        2.6092400233        3.1155452471
Na                5.0986340940        2.0635480979        1.5584003602
Na                2.5310313201        0.0000000000        1.5565235885
Na                2.5532003813        2.6069919483        0.0000000000
Na                4.0162129163        4.7470270192        1.5562096367
Na                1.1214580352        4.7707258403        1.5563372614
Na                0.0000000000        2.1007118105        1.5582771575


