%mem=14GB
%chk=checkpoint.chk
%nprocshared=16
#P B3LYP/6-311+g(d) force ! ASE formatted method and basis

Gaussian input prepared by ASE

0 2
Na                2.8828427351        0.0000000000        1.5186389158
Na                0.0000000000        4.2249313531        2.0572611297
Na                1.8148908688        5.4339666571        0.0000000000
Na                2.6817691152        2.9940558477        1.5155287663
Na                5.2180923344        1.6563544297        0.6324734781
Na                7.6281344614        3.3555942671        0.0727733985
Na                8.3329714125        4.6878510661        2.6689904430


