%mem=14GB
%chk=checkpoint.chk
%nprocshared=16
#P B3LYP/6-311+g(d) force ! ASE formatted method and basis

Gaussian input prepared by ASE

0 2
Na                2.3897627922        1.2505827975        0.0000000000
Na                4.3852553166        2.8590311041        1.7483282712
Na                6.4647540465        0.9148529818        1.2572922183
Na                3.8134460412        0.0000000000        1.9542772426
Na                1.8095539351        3.6037326697        1.2345377527
Na                1.8768200329        1.5774629807        3.0445344867
Na                0.0000000000        0.2311713879        1.2900901629


