%mem=14GB
%chk=checkpoint.chk
%nprocshared=16
#P B3LYP/6-311+g(d) force ! ASE formatted method and basis

Gaussian input prepared by ASE

0 2
Na                2.8040224426        2.0211587786        3.2329978083
Na                4.7682992115        3.5024183943        1.6220252146
Na                0.0000000000        1.8712908706        1.6209419908
Na                2.8124492317        2.0215885153        0.0000000000
Na                1.7955416834        3.9483782119        1.6122723879
Na                2.0149540015        0.0000000000        1.6129395186
Na                4.7015452245        0.4674926435        1.6204580041


