%mem=14GB
%chk=checkpoint.chk
%nprocshared=16
#P B3LYP/6-311+g(d) force ! ASE formatted method and basis

Gaussian input prepared by ASE

0 2
Na                2.7858704517        2.0439360292        0.0000000000
Na                2.7850874299        2.0440194573        3.4226056751
Na                4.7705514739        0.6137652560        1.7118001606
Na                2.0481243110        0.0000000000        1.7110106818
Na                4.5539756030        3.7338116093        1.7117202539
Na                1.7709206243        3.9526483429        1.7109389221
Na                0.0000000000        1.9444786920        1.7116765173


