%mem=14GB
%chk=checkpoint.chk
%nprocshared=16
#P B3LYP/6-311+g(d) force ! ASE formatted method and basis

Gaussian input prepared by ASE

0 2
Na                3.9850725067        1.1052753838        2.2452754135
Na                2.4577765303        2.3702243460        0.0000000000
Na                1.3111695803        0.0000000000        1.4398030571
Na                0.0000000000        2.6888052123        1.6904759816
Na                2.6398928557        3.7602768598        2.6490026199
Na                5.0616765692        3.5551306727        0.8950082708
Na                6.9182073879        1.3253491672        1.6524887107


