%mem=14GB
%chk=checkpoint.chk
%nprocshared=16
#P B3LYP/6-311+g(d) force ! ASE formatted method and basis

Gaussian input prepared by ASE

0 2
Na                4.5287693092        4.0399297043        1.9812190810
Na                0.2015888927        2.6414308795        0.0000000000
Na                0.0000000000        3.9620721818        2.6804689315
Na                2.2582371292        2.0755930932        2.1067041705
Na                4.4042253245        0.0000000000        2.4424400821
Na                6.2140270028        1.8161447108        0.8784855176
Na                7.4750442037        4.4400285328        1.5944328908


