%mem=14GB
%chk=checkpoint.chk
%nprocshared=16
#P B3LYP/6-311+g(d) force ! ASE formatted method and basis

Gaussian input prepared by ASE

0 2
Na                2.6585073930        1.5463664072        0.4155902556
Na                4.3334269298        2.3379389767        2.7797360291
Na                5.1421590054        0.0000000000        1.0834841449
Na                5.3560947294        2.7880714817        0.0000000000
Na                3.0844473099        4.4456463193        1.0471338208
Na                0.3130760493        3.2915031547        1.0894370853
Na                0.0000000000        0.3086199818        1.0555617741


