%mem=14GB
%chk=checkpoint.chk
%nprocshared=16
#P B3LYP/6-311+g(d) force ! ASE formatted method and basis

Gaussian input prepared by ASE

0 2
Na                3.6371077965        0.0000000000        0.7813508702
Na                6.6252220853        0.1123692166        0.5087254089
Na                8.4491264658        1.5896386097        2.3754043940
Na                6.5761529236        3.1096777066        0.5989218325
Na                3.6059553814        2.9444389171        0.1915577480
Na                1.0756227919        1.3444366253        0.0000000000
Na                0.0000000000        1.8047084949        2.7641897817


