%mem=14GB
%chk=checkpoint.chk
%nprocshared=16
#P B3LYP/6-311+g(d) force ! ASE formatted method and basis

Gaussian input prepared by ASE

0 2
Na                3.5762528770        0.7362480825        0.4222345614
Na                4.0246968394        1.0218466599        3.3743702650
Na                6.3652414227        0.7600713858        1.5155669340
Na                5.3274924381        3.1303255609        0.0000000000
Na                2.9253858886        3.3221771294        1.7916288967
Na                0.0000000000        2.6469138515        1.7039740275
Na                0.6646706369        0.0000000000        0.4551634048


