%mem=14GB
%chk=checkpoint.chk
%nprocshared=16
#P B3LYP/6-311+g(d) force ! ASE formatted method and basis

Gaussian input prepared by ASE

0 2
Na                2.9859961925        3.8508619178        1.4263388601
Na                5.0581846601        2.3378503748        2.9897626199
Na                5.8179620759        4.8223444553        1.5003323548
Na                5.1387876524        2.3188515171        0.0000000000
Na                3.9291688967        0.0000000000        1.4784520523
Na                1.2617303408        1.3872197447        1.4814672529
Na                0.0000000000        4.1043405816        1.4793304055


