%mem=14GB
%chk=checkpoint.chk
%nprocshared=16
#P B3LYP/6-311+g(d) force ! ASE formatted method and basis

Gaussian input prepared by ASE

0 2
Na                2.5898737691        1.3935829479        0.0000000000
Na                4.1283084389        0.3065963282        2.3378520979
Na                6.8483441267        0.4338486301        1.0798095900
Na                5.0369153943        2.8227855441        0.9854658764
Na                2.3242963901        4.0476820705        1.3655009286
Na                1.4145997277        1.5372851722        2.7457545790
Na                0.0000000000        0.0000000000        0.5927991070


