%mem=14GB
%chk=checkpoint.chk
%nprocshared=16
#P B3LYP/6-311+g(d) force ! ASE formatted method and basis

Gaussian input prepared by ASE

0 2
Na                2.3359456594        0.0000000000        0.6233358753
Na                2.2746275997        3.7936134618        2.4543224375
Na                0.0000000000        2.0107904171        1.3479728885
Na                2.1957914212        2.4253044083        0.0000000000
Na                2.0550715072        1.1717364192        3.0357115628
Na                4.5587153748        0.8714249754        2.2215277312
Na                4.6357192855        2.9970410472        0.7641987579


