%mem=14GB
%chk=checkpoint.chk
%nprocshared=16
#P B3LYP/6-311+g(d) force ! ASE formatted method and basis

Gaussian input prepared by ASE

0 2
Na                3.3593935157        0.0377030072        2.7100004007
Na                4.6095719856        0.0000000000        0.0000000000
Na                0.0000000000        3.1247427755        1.9730912472
Na                2.1760715221        1.6885778756        0.4993767190
Na                4.1342167598        3.9529557512        0.7704184285
Na                5.7224332450        1.7973122373        2.1345097317
Na                8.4763351583        2.8812347893        1.6586853844


