%mem=14GB
%chk=checkpoint.chk
%nprocshared=16
#P B3LYP/6-311+g(d) force ! ASE formatted method and basis

Gaussian input prepared by ASE

0 2
Na                5.4266961494        3.8298163365        0.0000000000
Na                7.6569147612        0.0000000000        1.0849182519
Na                7.1232053213        5.7566664520        1.5539396307
Na                7.3302754612        2.8105175397        2.0837334296
Na                4.9179660388        1.1975691052        1.3371805418
Na                2.8535884902        3.3725681507        1.4765756408
Na                0.0000000000        2.4426103168        1.4722595125


