%mem=14GB
%chk=checkpoint.chk
%nprocshared=16
#P B3LYP/6-311+g(d) force ! ASE formatted method and basis

Gaussian input prepared by ASE

0 2
Na                0.3286137654        2.4064144147        2.8585642354
Na                0.0000000000        4.9994447804        1.3869950780
Na                1.4335976267        0.0000000000        1.4437180858
Na                1.1872770870        2.6188748223        0.0000000000
Na                2.7422589016        4.0445352965        2.1348072987
Na                5.6191611004        4.0617505478        1.2726515772
Na                8.0216465016        2.3307171589        1.7317603603


