%mem=14GB
%chk=checkpoint.chk
%nprocshared=16
#P B3LYP/6-311+g(d) force ! ASE formatted method and basis

Gaussian input prepared by ASE

0 2
Na                3.9041840796        0.0000000000        1.4621225683
Na                8.0921084857        6.8930390604        0.8440572466
Na                7.9025331591        4.1429734883        2.0243663044
Na                6.4725809603        1.5503020248        1.5447060229
Na                4.1286589833        2.6078774242        0.0000000000
Na                2.7167955577        4.6164312036        1.7282292235
Na                0.0000000000        5.8702553399        1.5065878245


