%mem=14GB
%chk=checkpoint.chk
%nprocshared=16
#P B3LYP/6-311+g(d) force ! ASE formatted method and basis

Gaussian input prepared by ASE

0 2
Na                5.4183849527        4.3633888232        0.0000000000
Na                6.1341541876        4.9044348204        2.8612936668
Na                8.3687821700        0.3345889836        1.2027712645
Na                5.7887351450        0.0000000000        2.6937998372
Na                4.3578463708        2.5888123648        2.1728285598
Na                1.4173013204        2.8794280480        2.6995371515
Na                0.0000000000        0.9123756308        0.9325485242


