%mem=14GB
%chk=checkpoint.chk
%nprocshared=16
#P B3LYP/6-311+g(d) force ! ASE formatted method and basis

Gaussian input prepared by ASE

0 2
Na                2.8404453273        0.2600820653        0.0000000000
Na                1.5485397092        1.0725019509        2.7242980053
Na                0.0000000000        0.1298462189        0.4825046951
Na                1.3258092929        2.6837843175        0.5741106571
Na                4.0036702121        0.0000000000        2.4517578207
Na                3.8976884310        2.7284416063        1.4602408230
Na                5.6591117391        0.8045956038        0.2394887643


