%mem=14GB
%chk=checkpoint.chk
%nprocshared=16
#P B3LYP/6-311+g(d) force ! ASE formatted method and basis

Gaussian input prepared by ASE

0 2
Na                3.2121114671        5.2845013597        2.9525413587
Na                3.3967197098        0.0000000000        2.8534325720
Na                0.0000000000        2.4374208577        1.0720085304
Na                2.9593723780        2.6577280660        1.5263969462
Na                5.6751723821        3.7719223005        2.1619244445
Na                8.0393269034        2.0684576394        2.8690390303
Na                7.4716081276        2.7248101699        0.0000000000


