%mem=14GB
%chk=checkpoint.chk
%nprocshared=16
#P B3LYP/6-311+g(d) force ! ASE formatted method and basis

Gaussian input prepared by ASE

0 2
Na                5.3421269157        1.8027100690        0.0000000000
Na                4.7741604391        0.0000000000        1.9955586294
Na                0.0000000000        2.2802719742        2.0895565607
Na                2.5837852606        1.5940180679        0.9270381877
Na                4.4911201855        2.5841673550        2.8982569253
Na                6.6213995825        3.6870768988        1.5475135013
Na                7.2354441853        1.1526117496        2.4158784566


