%mem=14GB
%chk=checkpoint.chk
%nprocshared=16
#P B3LYP/6-311+g(d) force ! ASE formatted method and basis

Gaussian input prepared by ASE

0 2
Na                5.3994572684        0.5056303022        1.7122159120
Na                5.9222235259        3.1755491193        2.9768202404
Na                6.0764560366        2.8757688477        0.0000000000
Na                3.9415638721        4.5946195271        1.2252396984
Na                0.9607054676        4.5314437773        1.5507891683
Na                0.0000000000        1.6898732846        1.5205768336
Na                2.4692308095        0.0000000000        1.3071998844


