%mem=14GB
%chk=checkpoint.chk
%nprocshared=16
#P B3LYP/6-311+g(d) force ! ASE formatted method and basis

Gaussian input prepared by ASE

0 2
Na                0.0000000000        2.1077840353        1.3000526055
Na                5.8696547021        4.2789730481        1.6151912359
Na                5.9586105804        0.0000000000        1.6121937853
Na                4.0323333460        2.0985935481        2.1956204963
Na                1.7985716252        3.5972178126        2.7283157205
Na                2.4014140617        2.2119016165        0.0000000000
Na                1.8352080284        0.5006258638        2.5402796315


