%mem=14GB
%chk=checkpoint.chk
%nprocshared=16
#P B3LYP/6-311+g(d) force ! ASE formatted method and basis

Gaussian input prepared by ASE

0 2
Na                4.7204541057        0.0000000000        1.8212287531
Na                0.0145112453        3.6312808238        1.9912275572
Na                0.0000000000        0.6353704290        2.0340912044
Na                2.6090598983        2.1202703167        1.9765248084
Na                4.8512449260        2.3814571012        0.0000000000
Na                4.6545610369        4.2873338793        2.3067051565
Na                4.6790612990        1.9084942177        4.1379379631


