%mem=14GB
%chk=checkpoint.chk
%nprocshared=16
#P B3LYP/6-311+g(d) force ! ASE formatted method and basis

Gaussian input prepared by ASE

0 2
Na                4.3576475575        3.9447976706        2.2085640861
Na                0.9628966478        0.0000000000        2.9338108604
Na                0.0000000000        3.9234060861        1.2466972337
Na                2.3111400529        2.0109160269        1.1617877931
Na                4.6102330600        0.4660407961        0.0000000000
Na                6.6157185444        2.5348289924        0.8293873923
Na                9.0423038152        2.0923215120        2.5274009648


