%mem=14GB
%chk=checkpoint.chk
%nprocshared=16
#P B3LYP/6-311+g(d) force ! ASE formatted method and basis

Gaussian input prepared by ASE

0 2
Na                9.5278127078        0.0000000000        1.9284018603
Na               11.2698914837        2.1932667560        0.8577274260
Na                9.2812529191        4.3974885658        0.4143489870
Na                7.0532843586        4.5082367755        2.4227713453
Na                4.7742511030        2.7310513332        1.6316744416
Na                2.4025008023        1.8857894171        0.0000000000
Na                0.0000000000        2.4361266472        1.7127588516


