%mem=14GB
%chk=checkpoint.chk
%nprocshared=16
#P B3LYP/6-311+g(d) force ! ASE formatted method and basis

Gaussian input prepared by ASE

0 2
Na                0.2858300890        1.5956193053        3.3517137582
Na                3.0751974765        0.0000000000        0.0000000000
Na                0.2096036007        0.7525568431        0.4771647544
Na                0.0000000000        3.6546422657        1.1919854880
Na                2.7552633021        4.6537403835        0.5425231007
Na                4.3477355303        2.2870290765        1.4735555617
Na                3.1529894773        1.8569927487        4.1945198503


