%mem=14GB
%chk=checkpoint.chk
%nprocshared=16
#P B3LYP/6-311+g(d) force ! ASE formatted method and basis

Gaussian input prepared by ASE

0 2
Na                4.4322148112        2.5225516675        0.0000000000
Na                5.1180749431        3.6008232909        2.7022692937
Na                7.3078771381        2.8903972717        0.7746342679
Na                7.2942185112        0.0000000000        1.6017652371
Na                4.4731701758        0.6863832577        2.3769365779
Na                2.3086204793        2.7372108488        2.1002679043
Na                0.0000000000        1.1674417380        1.0018013038


