%mem=14GB
%chk=checkpoint.chk
%nprocshared=16
#P B3LYP/6-311+g(d) force ! ASE formatted method and basis

Gaussian input prepared by ASE

0 2
Na                2.4921569876        0.0000000000        2.1443951073
Na                4.0659693336        1.8168335478        3.5708849851
Na                4.0398951046        0.9441791202        0.0000000000
Na                5.6553565447        0.0493222762        2.1087122159
Na                5.5629493220        3.1372208707        1.5928557204
Na                2.4567542653        3.0778098825        1.6371381524
Na                0.0000000000        1.4990057701        1.8287100044


