%mem=14GB
%chk=checkpoint.chk
%nprocshared=16
#P B3LYP/6-311+g(d) force ! ASE formatted method and basis

Gaussian input prepared by ASE

0 2
Na                1.7923836190        1.7788611794        0.0000000000
Na                3.5592825264        0.0253025539        1.6907210984
Na                5.9582961262        1.7797115376        1.6275896811
Na                3.5554163144        3.5323217398        1.6911387241
Na                0.0000000000        3.5529115295        1.6319801311
Na                1.7387121776        1.7775333890        3.3241971275
Na                0.0047276446        0.0000000000        1.6311981580


