%mem=14GB
%chk=checkpoint.chk
%nprocshared=16
#P B3LYP/6-311+g(d) force ! ASE formatted method and basis

Gaussian input prepared by ASE

0 2
Na                3.8195472641        0.9885255927        3.0499196976
Na                3.0080696221        0.0000000000        0.3416848540
Na                0.9430516583        0.3605392434        2.4732985313
Na                0.0000000000        2.5867293851        0.6908967571
Na                5.4934726364        1.6119708010        0.6329622044
Na                2.8975813616        2.9834039252        0.0000000000
Na                3.3244534735        3.9445081387        2.8201732233


