%mem=14GB
%chk=checkpoint.chk
%nprocshared=16
#P B3LYP/6-311+g(d) force ! ASE formatted method and basis

Gaussian input prepared by ASE

0 2
Na                1.9176844686        0.2383123813        0.0000000000
Na                0.4046074224        0.0000000000        2.5797848862
Na                0.0000000000        2.3948096677        0.8198654963
Na                1.6954526799        4.8722213107        0.8350256822
Na                4.3692591066        3.9271949429        1.8184599629
Na                7.2163311877        3.0527137527        1.4715877737
Na                8.4937605800        0.3877579163        0.9659047997


