%mem=14GB
%chk=checkpoint.chk
%nprocshared=16
#P B3LYP/6-311+g(d) force ! ASE formatted method and basis

Gaussian input prepared by ASE

0 2
Na                2.4777013515        1.3923849860        3.7113077607
Na                2.6552627280        4.3417644910        4.1849904812
Na                4.8110355715        0.0000000000        2.4434437997
Na                4.6518055443        2.9877657433        2.3948078825
Na                2.8492519077        3.2151494818        0.0000000000
Na                0.7375333541        3.2640984599        2.1385788656
Na                0.0000000000        0.3695378607        2.3667124352


