%mem=14GB
%chk=checkpoint.chk
%nprocshared=16
#P B3LYP/6-311+g(d) force ! ASE formatted method and basis

Gaussian input prepared by ASE

0 2
Na                4.0046459129        0.1355591300        1.4765890634
Na                4.1227563070        4.5675095835        0.0000000000
Na                0.0000000000        2.6647353767        1.0244072728
Na                2.8118568293        2.8243006442        2.0567460726
Na                6.7913167254        0.0000000000        0.3803276524
Na                5.7553999091        2.5705985323        1.5349055072
Na                8.2476125149        4.2399236984        1.6775907116


