%mem=14GB
%chk=checkpoint.chk
%nprocshared=16
#P B3LYP/6-311+g(d) force ! ASE formatted method and basis

Gaussian input prepared by ASE

0 2
Na                3.9969684431        5.1036009659        1.9260925309
Na                4.3238135843        3.3503633116        4.3278902618
Na                6.8311609775        0.0000000000        2.2760710562
Na                5.9735253018        2.8491733918        1.8689202424
Na                3.6231378334        2.8406984906        0.0000000000
Na                1.9697377134        2.9683600155        2.5033860207
Na                0.0000000000        0.7148123689        2.3075459572


