%mem=14GB
%chk=checkpoint.chk
%nprocshared=16
#P B3LYP/6-311+g(d) force ! ASE formatted method and basis

Gaussian input prepared by ASE

0 2
Na                2.2494897659        0.2906941260        0.7135086050
Na                2.6303650698        1.3533954188        3.2333940289
Na                0.0000000000        1.6045015477        1.9722841611
Na                2.1820901524        3.4143581659        1.4145751680
Na                4.9023051401        0.0000000000        2.3054756709
Na                5.0590681085        3.0731849523        2.4842530697
Na                4.3788038277        1.9343570991        0.0000000000


