%mem=14GB
%chk=checkpoint.chk
%nprocshared=16
#P B3LYP/6-311+g(d) force ! ASE formatted method and basis

Gaussian input prepared by ASE

0 2
Na                2.5673625945        2.1343107499        3.1686254518
Na                4.3771125306        4.2547920713        2.0569273809
Na                4.3590171170        0.0000000000        2.0526709790
Na                3.2646448083        2.1353902310        0.2555000459
Na                0.2687896496        2.1636774847        0.0000000000
Na                0.0000000000        3.5993026051        2.6226914263
Na                0.0471857998        0.6140294109        2.5609701371


