%mem=14GB
%chk=checkpoint.chk
%nprocshared=16
#P B3LYP/6-311+g(d) force ! ASE formatted method and basis

Gaussian input prepared by ASE

0 2
Na                2.2530589414        1.4258875297        0.0000000000
Na                2.6363869237        0.3507784781        2.5574698202
Na                4.9527768394        1.4396043920        1.1345618664
Na                2.9112716661        3.4001192522        1.8902275081
Na                0.4539495536        2.0475777211        3.1448559178
Na                0.0887118140        3.1141007166        0.5576732251
Na                0.0000000000        0.0000000000        0.8980263244


