%mem=14GB
%chk=checkpoint.chk
%nprocshared=16
#P B3LYP/6-311+g(d) force ! ASE formatted method and basis

Gaussian input prepared by ASE

0 2
Na                5.0977156623        0.0000000000        1.7740371756
Na                7.2102793070        1.1921058297        0.0000000000
Na                6.6822832101        1.1357513533        4.0550054703
Na                7.3330797322        3.3257637182        2.1085800403
Na                4.5497067792        4.4149537051        1.8371711674
Na                2.8794573355        1.9738038333        1.3480166507
Na                0.0000000000        1.7166536030        2.1176622774


