%mem=14GB
%chk=checkpoint.chk
%nprocshared=16
#P B3LYP/6-311+g(d) force ! ASE formatted method and basis

Gaussian input prepared by ASE

0 2
Na                0.8276569174        2.1082308903        0.0000000000
Na                3.6338704863        1.8188684722        0.0661053641
Na                5.9084549887        2.1893062692        1.9008056080
Na                3.1102538575        2.1524031236        2.8168544649
Na                2.0896904108        4.2993787996        1.2615123650
Na                1.6400755191        0.0000000000        1.6967750753
Na                0.0000000000        2.4684827422        2.6913155341


