%mem=14GB
%chk=checkpoint.chk
%nprocshared=16
#P B3LYP/6-311+g(d) force ! ASE formatted method and basis

Gaussian input prepared by ASE

0 2
Na                6.8265399082        2.5677996159        0.0000000000
Na                1.4312339687        0.0000000000        0.4449286010
Na                0.0000000000        1.9106909136        2.2658892358
Na                1.7281204491        2.9523794237        0.0466386546
Na                4.1661839817        1.2419068347        0.4187486520
Na                5.5332682882        2.6250158760        2.7051056864
Na                6.6426928317        0.0563907825        1.6277485995


