%mem=14GB
%chk=checkpoint.chk
%nprocshared=16
#P B3LYP/6-311+g(d) force ! ASE formatted method and basis

Gaussian input prepared by ASE

0 2
Na                3.0092749766        2.2880179055        0.0099982216
Na                2.6222997712        5.1195351389        0.9531907387
Na                5.9850227550        1.9570271966        0.1648932968
Na                4.5173896696        3.3186707248        2.3908973546
Na                0.0000000000        2.4107920310        0.0000000000
Na                1.5577857417        2.8058991015        2.5429845696
Na                2.4032983074        0.0000000000        1.8748216055


