%mem=14GB
%chk=checkpoint.chk
%nprocshared=16
#P B3LYP/6-311+g(d) force ! ASE formatted method and basis

Gaussian input prepared by ASE

0 2
Na                2.4070341774        1.9253966146        0.0000000000
Na                2.3950108473        1.8061630049        3.7101132379
Na                0.0000000000        0.7745605568        1.8624936935
Na                3.7796390114        3.2326725121        1.8978082913
Na                1.0152020373        3.2301873460        1.8878371288
Na                2.4027710120        0.0000000000        1.7832072714
Na                4.8057597047        0.7801030506        1.8661889693


