%mem=14GB
%chk=checkpoint.chk
%nprocshared=16
#P B3LYP/6-311+g(d) force ! ASE formatted method and basis

Gaussian input prepared by ASE

0 2
Na                2.6856517928        3.5341887629        1.1407890968
Na                2.3881246179        1.3564557924        3.1560298355
Na                4.9074830600        1.9306837552        1.9420982536
Na                2.9800011167        0.6029364888        0.3132284151
Na                0.4014296135        0.0000000000        1.8513921060
Na                0.0000000000        2.9802768672        2.5827559307
Na                0.5325652240        2.3058220213        0.0000000000


