%mem=14GB
%chk=checkpoint.chk
%nprocshared=16
#P B3LYP/6-311+g(d) force ! ASE formatted method and basis

Gaussian input prepared by ASE

0 2
Na                3.8703219459        2.4851169896        0.0000000000
Na                2.4489636111        3.6667909880        1.9293777993
Na                6.4737340797        3.0727419816        1.0442574084
Na                4.5082270794        2.1676615424        2.9269541627
Na                4.2200371597        0.0000000000        0.9273820198
Na                1.9292338912        0.8788987558        2.0122844963
Na                0.0000000000        2.6413162223        0.8539625601


