%mem=14GB
%chk=checkpoint.chk
%nprocshared=16
#P B3LYP/6-311+g(d) force ! ASE formatted method and basis

Gaussian input prepared by ASE

0 2
Na                2.9279711716        0.0878287018        1.0388174112
Na                2.9346049530        1.7414980111        3.5425308855
Na                5.7774245439        0.0000000000        0.1074146311
Na                5.9438865343        2.9884373000        0.3004775500
Na                2.9967540286        3.0825930587        0.8626919507
Na                0.1226529711        3.0718207706        0.0000000000
Na                0.0000000000        0.0993304545        0.3792456305


