%mem=14GB
%chk=checkpoint.chk
%nprocshared=16
#P B3LYP/6-311+g(d) force ! ASE formatted method and basis

Gaussian input prepared by ASE

0 2
Na                2.1506731649        0.5995241331        0.2480414168
Na                2.5227082062        1.1525085763        3.1336349650
Na                0.0000000000        1.5580278083        1.8609875343
Na                2.0222660566        3.4794227658        1.2671920462
Na                4.3751487707        2.1709452203        0.0000000000
Na                4.7536494899        3.0243689371        2.5725226368
Na                4.6812809564        0.0000000000        1.9268612081


