%mem=14GB
%chk=checkpoint.chk
%nprocshared=16
#P B3LYP/6-311+g(d) force ! ASE formatted method and basis

Gaussian input prepared by ASE

0 2
Na                2.0850665260        1.3320537587        3.0959622586
Na                2.1508346779        1.3808620408        0.0000000000
Na                4.1922929246        0.0000000000        1.5696748611
Na                5.6627696343        2.5229643399        1.5090182640
Na                2.9091530315        3.4944631933        1.5977744675
Na                0.0000000000        0.5380066970        1.4895870224
Na                0.1766656061        3.2748688819        1.5378095012


