%mem=14GB
%chk=checkpoint.chk
%nprocshared=16
#P B3LYP/6-311+g(d) force ! ASE formatted method and basis

Gaussian input prepared by ASE

0 2
Na                3.7336058726        2.6539538823        0.0000000000
Na                3.1674829093        5.7607185408        2.6774879804
Na                7.7652785314        2.8469426006        3.2215391862
Na                5.1683778376        1.6796332940        4.1254417289
Na                1.6326070917        0.0000000000        2.5683157330
Na                2.7079835654        2.7939801653        2.8154440580
Na                0.0000000000        3.5228662046        3.8863452310


