%mem=14GB
%chk=checkpoint.chk
%nprocshared=16
#P B3LYP/6-311+g(d) force ! ASE formatted method and basis

Gaussian input prepared by ASE

0 2
Na                4.4359735118        0.3790816398        2.8509199723
Na                4.2607977836        1.2502559935        0.0000000000
Na                6.2788374660        2.5055274390        1.8255895212
Na                4.1445877954        4.5375638418        2.3765419837
Na                0.0000000000        4.1796681048        1.5058191653
Na                2.2392047952        2.2392577462        1.9858094562
Na                0.2375201527        0.0000000000        2.0621068317


