%mem=14GB
%chk=checkpoint.chk
%nprocshared=16
#P B3LYP/6-311+g(d) force ! ASE formatted method and basis

Gaussian input prepared by ASE

0 2
Na                3.6649105278        0.8548965230        0.5759482125
Na                2.6494132734        2.2471246212        3.0357673793
Na                6.3681031907        2.1289074021        0.7901727995
Na                3.9037789900        3.8288017402        0.8189941259
Na                1.1504575546        4.6991326522        0.0000000000
Na                0.0000000000        2.4572032942        1.6326793197
Na                0.8237639079        0.0000000000        0.1152945809


