%mem=14GB
%chk=checkpoint.chk
%nprocshared=16
#P B3LYP/6-311+g(d) force ! ASE formatted method and basis

Gaussian input prepared by ASE

0 2
Na                2.2021860805        0.0000000000        2.3955102390
Na                0.0000000000        1.6797199364        2.7070594462
Na                0.6681498813        1.2717369734        0.0000000000
Na                1.1383070264        4.0943869567        1.1824486601
Na                2.3135200507        2.8278020558        3.7766322270
Na                3.3028318869        2.2896793495        1.2256839330
Na                6.1912441324        2.0010260346        1.5505491370


