%mem=14GB
%chk=checkpoint.chk
%nprocshared=16
#P B3LYP/6-311+g(d) force ! ASE formatted method and basis

Gaussian input prepared by ASE

0 2
Na                5.1867378436        0.1075664642        1.2772217773
Na                2.4774216247        0.0000000000        1.0871722368
Na                0.0000000000        1.2103661690        1.7720862226
Na                2.3459746743        2.7710101499        2.1244513107
Na                3.8624397266        2.0714520230        0.0000000000
Na                5.0242797385        2.5425699480        2.4247858093
Na                3.6478037572        0.4571281061        3.4861745929


