%mem=14GB
%chk=checkpoint.chk
%nprocshared=16
#P B3LYP/6-311+g(d) force ! ASE formatted method and basis

Gaussian input prepared by ASE

0 2
Na                2.5282758785        2.0705441643        3.0458233587
Na                4.1275389954        0.0000000000        1.5227144237
Na                5.0632729633        2.7034602204        1.5235233011
Na                2.5412918728        4.6901754838        1.5228699732
Na                2.5286846937        2.0665011507        0.0000000000
Na                0.0000000000        2.7247291559        1.5213363378
Na                0.9143827688        0.0093241826        1.5257578817


