%mem=14GB
%chk=checkpoint.chk
%nprocshared=16
#P B3LYP/6-311+g(d) force ! ASE formatted method and basis

Gaussian input prepared by ASE

0 2
Na                1.6156960016        0.0000000000        2.1072818050
Na                0.0000000000        1.4042215773        0.0303027612
Na                0.4927317260        2.7214141546        2.6849364838
Na                2.4096193595        4.3783410553        1.0732390724
Na                2.9970702575        1.6325075030        0.0000000000
Na                5.6410774270        1.5054592724        1.4119721576
Na                8.5974006290        1.9860573956        1.3536331269


