%mem=14GB
%chk=checkpoint.chk
%nprocshared=16
#P B3LYP/6-311+g(d) force ! ASE formatted method and basis

Gaussian input prepared by ASE

0 2
Na                2.5338277128        2.4602930828        3.1214490804
Na                0.0000000000        3.9691512480        1.7768798294
Na                1.6737588759        2.4478000482        0.0000000000
Na                0.0373730344        0.8915368111        1.7822485576
Na                2.9833807852        0.0000000000        1.7025516118
Na                4.7433107268        2.4884913059        1.3103092355
Na                2.9204819293        4.9288053289        1.7047131131


