%mem=14GB
%chk=checkpoint.chk
%nprocshared=16
#P B3LYP/6-311+g(d) force ! ASE formatted method and basis

Gaussian input prepared by ASE

0 2
Na                0.9640991756        0.0015711540        2.0421294607
Na                3.4200096645        0.0000000000        1.8476076931
Na                4.3881313209        2.3553702823        1.9329060207
Na                2.1172872756        1.6417413861        0.0000000000
Na                0.0000000000        2.3615611686        1.9582777521
Na                2.1981586437        3.8492499385        1.9470133698
Na                2.2687633050        1.6387194350        3.8886767984


