%mem=14GB
%chk=checkpoint.chk
%nprocshared=16
#P B3LYP/6-311+g(d) force ! ASE formatted method and basis

Gaussian input prepared by ASE

0 2
Na                1.9459322264        1.8044169870        0.0000000000
Na                3.6698215947        3.6050086276        1.6923598935
Na                6.0487216298        1.8031299522        1.7514397510
Na                3.6674887406        0.0000000000        1.6923480219
Na                1.9989005321        1.8042547352        3.4353864089
Na                0.0002348308        3.2818880447        1.7482830929
Na                0.0000000000        0.3251155155        1.7481377341


