%mem=14GB
%chk=checkpoint.chk
%nprocshared=16
#P B3LYP/6-311+g(d) force ! ASE formatted method and basis

Gaussian input prepared by ASE

0 2
Na                2.9156321782        1.8301731018        0.0000000000
Na                1.8848107421        0.3529951299        2.4096279626
Na                0.0000000000        1.8298713373        0.6327666022
Na                1.8858459459        3.3117983623        2.4084793786
Na                5.1687781191        0.0000000000        0.8173797216
Na                4.4169749895        1.8338777803        3.0868131666
Na                5.1679064644        3.6600420391        0.8124340096


