%mem=14GB
%chk=checkpoint.chk
%nprocshared=16
#P B3LYP/6-311+g(d) force ! ASE formatted method and basis

Gaussian input prepared by ASE

0 2
Na                6.8590754109        1.5893209794        0.0000000000
Na                6.6064991285        4.1672007016        1.5057127637
Na                8.8183913769        2.2449483733        2.1738471413
Na                6.8579281728        0.0000000000        2.5393182674
Na                4.6422542944        1.9500797990        1.9848335142
Na                1.8996364532        2.7891079566        2.8640128910
Na                0.0000000000        1.4971367516        0.9350747037


