%mem=14GB
%chk=checkpoint.chk
%nprocshared=16
#P B3LYP/6-311+g(d) force ! ASE formatted method and basis

Gaussian input prepared by ASE

0 2
Na                2.9803557311        1.7174287969        2.7382963199
Na                2.0978571461        4.5470484057        2.2180365921
Na                5.7868873196        1.3255992937        1.7679322423
Na                3.9703603741        3.2171372305        0.3302033682
Na                1.0023264770        2.8389978701        0.0000000000
Na                0.0000000000        1.3994062415        2.4467875283
Na                1.8173524541        0.0000000000        0.5566854505


