%mem=14GB
%chk=checkpoint.chk
%nprocshared=16
#P B3LYP/6-311+g(d) force ! ASE formatted method and basis

Gaussian input prepared by ASE

0 2
Na                0.0000000000        2.2226263184        1.5518770359
Na                2.0888995448        3.7206508253        0.0000000000
Na                1.6598549304        6.0505203780        1.8360771729
Na                1.4640857634        3.7168699304        3.7080596075
Na                1.9869921796        0.0000000000        1.8503497673
Na                3.7106859410        2.4327507783        2.1782213171
Na                6.5832362074        3.1973322720        1.8524569544


