%mem=14GB
%chk=checkpoint.chk
%nprocshared=16
#P B3LYP/6-311+g(d) force ! ASE formatted method and basis

Gaussian input prepared by ASE

0 2
Na                5.6526302000        2.6403836852        1.0624764565
Na                4.8524770460        0.4614393481        2.9596289250
Na               10.2074753502        1.1744138386        1.1387260769
Na                7.3787607519        0.2014163237        1.3629811123
Na                4.7138855567        0.0000000000        0.0000000000
Na                2.7659722153        1.8606572022        1.3193327423
Na                0.0000000000        0.7037166355        1.1495310281


