%mem=14GB
%chk=checkpoint.chk
%nprocshared=16
#P B3LYP/6-311+g(d) force ! ASE formatted method and basis

Gaussian input prepared by ASE

0 2
Na                2.6276286032        4.7112307897        4.2589505912
Na                0.5587832799        4.5785114609        0.0000000000
Na                7.0775014832        1.9732199736        2.2836344611
Na                4.9487997602        3.4103529379        0.7458724692
Na                2.2094011432        2.9211684317        1.8832068539
Na                0.0000000000        1.3668191325        3.1900238260
Na                1.8614184092        0.0000000000        1.2888693786


