%mem=14GB
%chk=checkpoint.chk
%nprocshared=16
#P B3LYP/6-311+g(d) force ! ASE formatted method and basis

Gaussian input prepared by ASE

0 2
Na                0.0000000000        2.2835168061        0.7241414663
Na                1.4808729138        4.7713473402        1.5037603703
Na                5.6912358019        1.6531027958        0.0000000000
Na                2.9689058701        2.1911075209        1.1473365977
Na                3.8426854337        4.1490884343        3.2448452629
Na                3.2725794288        1.3024581871        3.9997613264
Na                1.2320897214        0.0000000000        2.2301948907


