%mem=14GB
%chk=checkpoint.chk
%nprocshared=16
#P B3LYP/6-311+g(d) force ! ASE formatted method and basis

Gaussian input prepared by ASE

0 2
Na                0.0000000000        1.5958274883        1.1398332118
Na                2.1995590298        0.0298845593        2.7353463702
Na                5.8742698947        2.4994578543        1.3882635363
Na                3.0121531102        2.3873954510        0.8362340132
Na                1.9283619728        0.0000000000        0.0000000000
Na                1.5423103827        2.6704843655        3.1456940579
Na                0.8701406121        4.3640504996        0.8749318249


