%mem=14GB
%chk=checkpoint.chk
%nprocshared=16
#P B3LYP/6-311+g(d) force ! ASE formatted method and basis

Gaussian input prepared by ASE

0 2
Na                5.7314471382        6.5933975732        1.7939211709
Na                5.6137264866        4.1389702838        0.0735617510
Na                6.7029738174        0.0000000000        2.4597256303
Na                5.4243075960        1.1475229763        0.0000000000
Na                2.9666202314        2.7890738511        0.5167855418
Na                0.0000000000        2.3522601193        0.3878023732
Na                1.3023674251        3.0319914306        2.9997275646


