%mem=14GB
%chk=checkpoint.chk
%nprocshared=16
#P B3LYP/6-311+g(d) force ! ASE formatted method and basis

Gaussian input prepared by ASE

0 2
Na                2.8613218429        0.8612998213        3.0162534196
Na                0.0047865996        3.2442584255        0.8526313356
Na                0.0000000000        0.5461354572        2.1637197451
Na                2.1959464024        0.0000000000        0.2199829666
Na                2.2026821397        3.7891431802        2.7957093543
Na                2.8627532346        2.9242318550        0.0000000000
Na                5.2505152218        1.8894799040        1.5070910767


