%mem=14GB
%chk=checkpoint.chk
%nprocshared=16
#P B3LYP/6-311+g(d) force ! ASE formatted method and basis

Gaussian input prepared by ASE

0 2
Na                2.5364402942        0.0000000000        1.8765230897
Na                2.5392605608        3.0849099980        1.9075873625
Na                4.6157766794        1.5389506437        1.9904856805
Na                1.5547980536        1.5626219162        0.0000000000
Na                0.0029541047        2.8582856894        2.1566956744
Na                1.9096777960        1.5219574497        3.9741586476
Na                0.0000000000        0.2220935395        2.1313111998


