%mem=14GB
%chk=checkpoint.chk
%nprocshared=16
#P B3LYP/6-311+g(d) force ! ASE formatted method and basis

Gaussian input prepared by ASE

0 2
Na                2.4624734795        1.5337060130        0.0000000000
Na                2.4478556711        0.1032823163        2.6327732006
Na                0.0267977216        0.0179524282        0.8653264208
Na                0.0000000000        3.0179754204        0.8450274126
Na                2.4758657395        3.1094435019        2.5448240628
Na                4.9417958122        3.0001988777        0.8323128448
Na                4.8845917191        0.0000000000        0.8801729180


