%mem=14GB
%chk=checkpoint.chk
%nprocshared=16
#P B3LYP/6-311+g(d) force ! ASE formatted method and basis

Gaussian input prepared by ASE

0 2
Na                2.7158977707        2.0799119065        0.0000000000
Na                2.7166319764        2.0796202938        3.1630944293
Na                4.6971525603        3.5410670373        1.5809815620
Na                4.6879887341        0.6080434394        1.5808891251
Na                1.8306183034        4.1638926031        1.5819448056
Na                1.8177371090        0.0000000000        1.5817901275
Na                0.0000000000        2.0855644126        1.5808372391


