%mem=14GB
%chk=checkpoint.chk
%nprocshared=16
#P B3LYP/6-311+g(d) force ! ASE formatted method and basis

Gaussian input prepared by ASE

0 2
Na                2.8950919647        2.0638771751        0.0000000000
Na                5.0133811108        3.4900671887        1.4810065141
Na                5.0110534633        0.6299012616        1.4821848100
Na                2.8767929266        2.0615383977        2.9333674887
Na                1.7393601379        0.0000000000        1.4507637548
Na                0.0000000000        2.0602530502        1.4922116483
Na                1.7384080008        4.1213184529        1.4532651423


