%mem=14GB
%chk=checkpoint.chk
%nprocshared=16
#P B3LYP/6-311+g(d) force ! ASE formatted method and basis

Gaussian input prepared by ASE

0 2
Na                2.3014595882        0.5307916316        0.0236744355
Na                2.3003217955        0.5502589823        2.7394565396
Na                4.6392424986        1.4349127845        1.3761195893
Na                2.4030078058        3.1945136608        1.3652335013
Na                0.2331912855        2.3091743966        0.0000000000
Na                0.2328445207        2.3278146186        2.7400900740
Na                0.0000000000        0.0000000000        1.3848239513


