%mem=14GB
%chk=checkpoint.chk
%nprocshared=16
#P B3LYP/6-311+g(d) force ! ASE formatted method and basis

Gaussian input prepared by ASE

0 2
Na                5.7318161217        0.0000000000        2.7102300272
Na                4.5639503688        0.4875405206        0.0000000000
Na                8.5349282129        0.7882107500        2.0048411539
Na                6.2509911876        2.5998248889        1.3126784243
Na                3.6132516633        3.8317076259        2.0533267343
Na                2.8917517772        0.9410966618        2.4532615125
Na                0.0000000000        0.6084238302        1.7351551687


