%mem=14GB
%chk=checkpoint.chk
%nprocshared=16
#P B3LYP/6-311+g(d) force ! ASE formatted method and basis

Gaussian input prepared by ASE

0 2
Na                0.0000000000        4.3825080911        1.3730274253
Na                2.3328115262        2.8672439095        2.5078445952
Na                0.6446030197        0.6579967930        3.6449633951
Na                3.0443594601        0.0000000000        1.9766063649
Na                3.8095450485        2.1200015090        0.0000000000
Na                5.1919682060        1.9792434633        2.6522755347
Na                4.4492401372        4.7591421374        3.4927290531


