%mem=14GB
%chk=checkpoint.chk
%nprocshared=16
#P B3LYP/6-311+g(d) force ! ASE formatted method and basis

Gaussian input prepared by ASE

0 2
Na                0.0000000000        2.9981802594        1.2024202232
Na                2.9871159569        2.9664694328        0.9127578082
Na                3.4526036610        5.7338420887        1.9776194085
Na                5.3654521304        4.5532419553        0.0000000000
Na                7.2353533057        2.5401149334        1.2047384371
Na                4.8671361482        1.3535357074        2.6138805808
Na                3.2142744942        0.0000000000        0.5149191829


