%mem=14GB
%chk=checkpoint.chk
%nprocshared=16
#P B3LYP/6-311+g(d) force ! ASE formatted method and basis

Gaussian input prepared by ASE

0 2
Na                2.8864349286        1.0621760438        0.1617687525
Na                4.1648041239        1.1879448023        2.8769940021
Na                5.6616548236        0.0000000000        0.5736486416
Na                6.2545814429        2.8087965418        1.4514528174
Na                3.8568648996        3.9008942677        0.0000000000
Na                1.9453148537        3.0756130072        2.1617795476
Na                0.0000000000        1.1366177886        0.9643357068


