%mem=14GB
%chk=checkpoint.chk
%nprocshared=16
#P B3LYP/6-311+g(d) force ! ASE formatted method and basis

Gaussian input prepared by ASE

0 2
Na                2.0487689409        0.9816876966        0.0000000000
Na                3.8392853710        0.9767114213        3.3338015681
Na                4.8131127014        0.0082666377        0.6636651571
Na                5.8005209667        2.6108357462        1.7715820416
Na                2.8909412234        3.3160971672        1.6990892958
Na                0.0000000000        2.5484697423        1.5102644060
Na                1.0748042348        0.0000000000        2.6659538110


