%mem=14GB
%chk=checkpoint.chk
%nprocshared=16
#P B3LYP/6-311+g(d) force ! ASE formatted method and basis

Gaussian input prepared by ASE

0 2
Na                5.6625594191        5.1958488490        0.0000000000
Na                6.4967727142        5.5294174319        2.8576197785
Na                0.0000000000        2.8288653771        1.0231555492
Na                2.3287081502        3.8321559688        2.6210221367
Na                5.1468536650        2.9985759260        1.9761452912
Na                7.5100623571        1.3570739686        1.1127024922
Na                5.0167863398        0.0000000000        2.0562487602


