%mem=14GB
%chk=checkpoint.chk
%nprocshared=16
#P B3LYP/6-311+g(d) force ! ASE formatted method and basis

Gaussian input prepared by ASE

0 2
Na                4.3922772057        3.7780377318        2.9637155752
Na                4.9757041363        0.0720369741        0.7033335024
Na                7.7503303367        0.0000000000        1.8317121608
Na                6.4855807955        2.6299936692        1.1435744386
Na                4.0621165080        3.9900472175        0.0000000000
Na                2.6582583570        1.8075267184        1.5093232371
Na                0.0000000000        0.4236699489        1.5764015911


