%mem=14GB
%chk=checkpoint.chk
%nprocshared=16
#P B3LYP/6-311+g(d) force ! ASE formatted method and basis

Gaussian input prepared by ASE

0 2
Na                2.7981029897        0.0867825045        0.8266517137
Na                1.5899418646        2.4836051730        0.0000000000
Na                0.0000000000        0.0000000000        1.0250402575
Na                1.9131499735        0.0765315558        3.4944799605
Na                0.7287603727        2.4842361603        2.6728775005
Na                3.5261539015        2.5567996852        2.4622893518
Na                5.5851739951        0.7817347816        1.3844744822


