%mem=14GB
%chk=checkpoint.chk
%nprocshared=16
#P B3LYP/6-311+g(d) force ! ASE formatted method and basis

Gaussian input prepared by ASE

0 2
Na                2.3848916429        0.1975995243        2.5036366108
Na                2.0457835678        3.2959074456        2.0125445734
Na                0.0000000000        1.3437594159        1.2410847802
Na                2.6497628227        1.4550037774        0.0000000000
Na                4.2793727686        2.1468920691        3.2367710345
Na                4.8798892547        3.0542116637        0.6362369731
Na                5.1749547550        0.0000000000        1.1424187204


