%mem=14GB
%chk=checkpoint.chk
%nprocshared=16
#P B3LYP/6-311+g(d) force ! ASE formatted method and basis

Gaussian input prepared by ASE

0 2
Na                1.9636187934        2.6550206490        2.6756353080
Na                2.0772155713        3.9922449929        0.0000000000
Na                0.0000000000        1.8977593632        0.5407455362
Na                2.1861152726        0.0000000000        1.3179518176
Na                6.4236814928        0.0283050625        0.6472488713
Na                4.2708260921        2.1126571363        0.8393182456
Na                6.2729161717        4.2903502442        1.3761810309


