%mem=14GB
%chk=checkpoint.chk
%nprocshared=16
#P B3LYP/6-311+g(d) force ! ASE formatted method and basis

Gaussian input prepared by ASE

0 2
Na                2.7736390331        0.0000000000        1.8205609645
Na                4.0662990766        3.7180785587        1.1349532880
Na                5.5376623403        1.1357722123        1.5342339334
Na                3.7269427860        2.1659838674        3.6789358041
Na                1.4194333791        3.7164232370        2.5430581480
Na                1.7621485219        2.1679618840        0.0000000000
Na                0.0000000000        1.0972596880        2.1664875689


