%mem=14GB
%chk=checkpoint.chk
%nprocshared=16
#P B3LYP/6-311+g(d) force ! ASE formatted method and basis

Gaussian input prepared by ASE

0 2
Na                3.0498188734        0.0150300907        1.7081484472
Na                5.3326553982        1.5362117030        1.9903378316
Na                2.9716915771        2.9570344473        2.0307393575
Na                0.0000000000        3.0000462747        2.0896474688
Na                0.0485365636        0.0000000000        1.8856719509
Na                1.4503744734        1.2011166988        3.7488605630
Na                1.3966868344        1.6240444951        0.0000000000


