%mem=14GB
%chk=checkpoint.chk
%nprocshared=16
#P B3LYP/6-311+g(d) force ! ASE formatted method and basis

Gaussian input prepared by ASE

0 2
Na                4.3719605219        0.3688442791        0.0000000000
Na                4.9675547291        3.2266526761        0.6910367554
Na                6.8173532216        2.2282765506        2.8366597573
Na                4.8064526403        0.0000000000        2.9464980547
Na                2.6326921305        1.8201925312        1.9550770170
Na                0.0000000000        3.2236255972        2.2545802678
Na                0.0726513258        0.2654274532        1.8001494107


