%mem=14GB
%chk=checkpoint.chk
%nprocshared=16
#P B3LYP/6-311+g(d) force ! ASE formatted method and basis

Gaussian input prepared by ASE

0 2
Na                1.8917847594        2.9486010612        3.1286753639
Na                4.0416828137        4.2941808271        1.5316267476
Na                0.0000000000        0.9198498590        1.9880128762
Na                2.1687791387        0.0631378296        3.8718733009
Na                6.9720367502        1.3110938587        4.1205922328
Na                4.4411749505        1.4866539751        2.5164740841
Na                5.1318257921        0.0000000000        0.0000000000


