%mem=14GB
%chk=checkpoint.chk
%nprocshared=16
#P B3LYP/6-311+g(d) force ! ASE formatted method and basis

Gaussian input prepared by ASE

0 2
Na                2.6240115514        3.0328556395        0.4120816359
Na                2.2178381640        1.9965371679        3.2129698051
Na                4.7613584771        1.7708924027        1.8765826283
Na                2.7096607105        0.0000000000        0.8895515215
Na                0.0000000000        0.1526270882        2.3302819702
Na                0.2888799260        1.6109797964        0.0000000000
Na                0.0267546728        3.2822505308        2.1484428968


