%mem=14GB
%chk=checkpoint.chk
%nprocshared=16
#P B3LYP/6-311+g(d) force ! ASE formatted method and basis

Gaussian input prepared by ASE

0 2
Na                2.6358562070        2.0850658941        3.2883481082
Na                2.4099236020        0.0000000000        1.5807954633
Na                5.0320208189        1.2708438814        1.9107519733
Na                3.9166552235        3.9490762235        1.5171597464
Na                2.1808373650        2.2107509983        0.0000000000
Na                1.0356455659        3.8891216546        2.0588655858
Na                0.0000000000        1.3212059993        1.9133805678


