%mem=14GB
%chk=checkpoint.chk
%nprocshared=16
#P B3LYP/6-311+g(d) force ! ASE formatted method and basis

Gaussian input prepared by ASE

0 2
Na                2.4572844273        2.5788093730        2.9420429119
Na                4.3497895319        1.0634068654        1.1701462037
Na                6.8197649463        2.6254413171        1.8476080767
Na                4.2919102683        4.0508282308        1.0748582058
Na                1.5949075277        0.0000000000        1.6621009006
Na                1.9726085389        2.4725643995        0.0000000000
Na                0.0000000000        3.8667469824        1.7883463512


