%mem=14GB
%chk=checkpoint.chk
%nprocshared=16
#P B3LYP/6-311+g(d) force ! ASE formatted method and basis

Gaussian input prepared by ASE

0 2
Na                2.4362993570        1.0945924147        0.0576476211
Na                4.2501072917        0.0000000000        2.1691168583
Na                5.3718443186        1.7435543734        0.0000000000
Na                5.1934639677        3.9289315932        2.0547081358
Na                2.6368528702        2.4830234757        2.7045901019
Na                1.1836454242        3.7915591288        0.4281387212
Na                0.0000000000        1.3996298181        1.7771418966


