%mem=12GB
%chk=checkpoint.chk
%nprocshared=16
#P B3LYP/6-311+g(d) force ! ASE formatted method and basis

Gaussian input prepared by ASE

0 1
Na                2.1819963645        1.9474625200        0.0000000000
Na                3.5947545305        0.4619006173        2.1947649143
Na                5.1765888554        1.9475984424        0.1282278985
Na                3.5962333919        3.4426061538        2.1915667146
Na                0.0061509095        3.9049507992        0.7004028637
Na                1.0420447602        1.9520196611        2.7412115702
Na                0.0000000000        0.0000000000        0.7033389413


