%mem=12GB
%chk=checkpoint.chk
%nprocshared=16
#P B3LYP/6-311+g(d) force ! ASE formatted method and basis

Gaussian input prepared by ASE

0 1
Na                0.0000000000        1.6986990472        1.2271023315
Na                2.3962364915        2.3997860990        3.2135259219
Na                2.5296634122        0.0000000000        1.6080415748
Na                5.0987786258        1.6478633860        1.4301915924
Na                4.1097878701        4.5451476989        1.4689531127
Na                2.3503305692        2.8119244909        0.0000000000
Na                1.0453564419        4.5416832050        1.8433843691


