%mem=12GB
%chk=checkpoint.chk
%nprocshared=16
#P B3LYP/6-311+g(d) force ! ASE formatted method and basis

Gaussian input prepared by ASE

0 1
Na                4.1686117116        2.1663087674        0.0000000000
Na                5.4817475943        0.0000000000        1.1091256490
Na                6.8605618331        2.7477638705        1.3583405114
Na                4.1500461050        3.9229233071        2.1652644036
Na                5.1034546259        1.3407777845        3.4984685754
Na                2.7216063572        1.1568176922        2.1102822140
Na                0.0000000000        1.9726734649        1.5494759682


