%mem=12GB
%chk=checkpoint.chk
%nprocshared=16
#P B3LYP/6-311+g(d) force ! ASE formatted method and basis

Gaussian input prepared by ASE

0 1
Na                5.1151411917        3.2191672675        0.4613044880
Na                2.6069097840        0.0000000000        3.5040941292
Na                7.0323717065        1.5029864216        1.9893351504
Na                5.1598564126        0.2709967108        0.0000000000
Na                0.0000000000        0.4789239578        0.0456991680
Na                2.6370196783        1.5924350356        0.9561550408
Na                1.2939740970        4.0561635218        2.0394134288


