%mem=12GB
%chk=checkpoint.chk
%nprocshared=16
#P B3LYP/6-311+g(d) force ! ASE formatted method and basis

Gaussian input prepared by ASE

0 1
Na                2.6255936100        3.5917123510        0.0000000000
Na                5.7450351193        0.2885251691        1.8610198001
Na                7.9538493309        2.3091348981        1.7258349095
Na                5.0925659356        3.2108762519        1.6628353599
Na                2.7325538106        4.6858424188        2.7877466526
Na                0.4218692565        2.9676972160        1.9394349449
Na                0.0000000000        0.0000000000        1.7952486096


