%mem=12GB
%chk=checkpoint.chk
%nprocshared=16
#P B3LYP/6-311+g(d) force ! ASE formatted method and basis

Gaussian input prepared by ASE

0 1
Na                4.5373621751        0.6633056477        2.2553481279
Na                7.3239582421        0.0000000000        1.3547571719
Na                8.3080501792        2.4896653218        0.0000000000
Na                7.1418351438        4.8131390888        1.4934615158
Na                4.5087307414        3.6637590110        2.3532497545
Na                2.9388287367        2.2147795685        0.2482348162
Na                0.0000000000        2.4871830435        0.7857228765


