%mem=12GB
%chk=checkpoint.chk
%nprocshared=16
#P B3LYP/6-311+g(d) force ! ASE formatted method and basis

Gaussian input prepared by ASE

0 1
Na                2.4487017671        2.0256952030        0.0000000000
Na                2.4516266857        2.9302768236        2.8567475847
Na                0.0000000000        1.6511673729        1.6909629359
Na                2.4499827137        0.0000000000        2.2107066495
Na                4.9022854959        1.2761966181        3.3794024007
Na                4.8984798610        0.3729062784        0.5188846151
Na                4.9013932396        3.3025245031        1.1672861458


