%mem=12GB
%chk=checkpoint.chk
%nprocshared=16
#P B3LYP/6-311+g(d) force ! ASE formatted method and basis

Gaussian input prepared by ASE

0 1
Na                2.3141844030        2.0017258936        3.2507193877
Na                1.2118135914        0.0000000000        1.6137101646
Na                2.7740881568        1.7062962099        0.0000000000
Na                4.8730430405        2.7797253104        1.8280625957
Na                4.0682733772        0.1979753988        2.0296580094
Na                2.4969708617        4.0533269030        1.5836779523
Na                0.0000000000        2.6142434497        1.7689409966


