%mem=12GB
%chk=checkpoint.chk
%nprocshared=16
#P B3LYP/6-311+g(d) force ! ASE formatted method and basis

Gaussian input prepared by ASE

0 1
Na                3.7252562305        2.9696748016        0.0000000000
Na                5.3340344513        4.9095337530        1.6316947807
Na                7.9667200345        0.0000000000        1.7532538918
Na                5.1167914207        0.4874941194        0.9583870106
Na                4.0923653275        2.5072178425        2.9306271176
Na                1.3256507132        2.7120570824        1.7863178376
Na                0.0000000000        0.0276833684        1.5908571086


