%mem=12GB
%chk=checkpoint.chk
%nprocshared=16
#P B3LYP/6-311+g(d) force ! ASE formatted method and basis

Gaussian input prepared by ASE

0 1
Na                2.1997639624        1.9528734082        3.3917189887
Na                0.9665238815        3.5900513053        1.6995024143
Na                4.3974622421        1.3006232393        1.6982450176
Na                3.4260070375        3.5897054034        1.6923224191
Na                2.1949823979        1.9466047458        0.0000000000
Na                2.2006852263        0.0000000000        1.6998973457
Na                0.0000000000        1.2950351510        1.6979238966


