%mem=12GB
%chk=checkpoint.chk
%nprocshared=16
#P B3LYP/6-311+g(d) force ! ASE formatted method and basis

Gaussian input prepared by ASE

0 1
Na                2.5512377558        1.9966505332        3.3207682286
Na                2.5513909358        1.9972293474        0.0000000000
Na                5.0179162630        1.0931857396        1.6604767046
Na                3.9869770789        3.5887797674        1.6608934390
Na                1.1909272347        3.6768884156        1.6606000203
Na                2.3618861162        0.0000000000        1.6604123522
Na                0.0000000000        1.2674564376        1.6605546461


