%mem=12GB
%chk=checkpoint.chk
%nprocshared=16
#P B3LYP/6-311+g(d) force ! ASE formatted method and basis

Gaussian input prepared by ASE

0 1
Na                0.3251989773        0.7191254917        2.3673748682
Na                2.5075724220        2.5956793782        0.0000000000
Na                0.0000000000        2.9422009680        0.9961688388
Na                2.5346582631        1.7228071892        3.1863210269
Na                2.3645859039        4.1002429659        2.2696625645
Na                4.7679369237        2.1773633371        1.7645210147
Na                2.8116850501        0.0000000000        0.8413501205


