%mem=12GB
%chk=checkpoint.chk
%nprocshared=16
#P B3LYP/6-311+g(d) force ! ASE formatted method and basis

Gaussian input prepared by ASE

0 1
Na                2.8631364226        0.1019570680        2.4894135974
Na                5.1400510435        1.8936605081        3.2936458278
Na                7.0164779087        0.1795519529        1.7019218019
Na                4.5477394731        0.1763480008        0.0000000000
Na                4.2670864648        3.0918136572        0.6791317131
Na                1.4624263757        2.6070768378        1.6258671975
Na                0.0000000000        0.0000000000        1.6311393538


