%mem=12GB
%chk=checkpoint.chk
%nprocshared=16
#P B3LYP/6-311+g(d) force ! ASE formatted method and basis

Gaussian input prepared by ASE

0 1
Na                2.3615352347        2.3099711207        0.0000000000
Na                4.1045827845        0.0000000000        0.8167901536
Na                4.4257194953        3.8136332025        1.5875436962
Na                4.0097153237        1.4778765778        3.4278569421
Na                1.0206687798        1.3644840495        3.6944909400
Na                0.0000000000        0.7243767964        0.9517924453
Na                0.3011601262        3.5671876385        1.7897670665


