%mem=12GB
%chk=checkpoint.chk
%nprocshared=16
#P B3LYP/6-311+g(d) force ! ASE formatted method and basis

Gaussian input prepared by ASE

0 1
Na                2.3264703453        0.9732253015        2.9622099946
Na                2.6666989897        0.5316372964        0.2356717551
Na                4.9909045214        1.2492055673        1.8293054602
Na                3.1252760875        3.4158967202        1.2948914123
Na                0.5553862959        2.3496635993        0.0000000000
Na                0.3997762938        2.9695916528        2.7205528676
Na                0.0000000000        0.0000000000        1.7995841383


