%mem=12GB
%chk=checkpoint.chk
%nprocshared=16
#P B3LYP/6-311+g(d) force ! ASE formatted method and basis

Gaussian input prepared by ASE

0 1
Na                4.1868078822        4.0639615691        1.7581845043
Na                4.3675881285        1.6377821011        0.0000000000
Na                6.8201976733        2.6953921406        1.3556216791
Na                4.6724542922        1.3595553028        2.9670629506
Na                2.3961623749        0.0000000000        1.5614357204
Na                0.0000000000        1.8099533539        1.4848052028
Na                1.2302209163        4.5481754993        1.5543834226


