%mem=12GB
%chk=checkpoint.chk
%nprocshared=16
#P B3LYP/6-311+g(d) force ! ASE formatted method and basis

Gaussian input prepared by ASE

0 1
Na                2.4131339275        2.1200076941        0.0000000000
Na                0.2775418603        1.6092707203        2.9278546883
Na                2.1773402608        3.6072840605        2.1744222042
Na                4.5443740113        1.7806906678        1.3187645966
Na                2.6536808450        0.7780581437        2.7031435801
Na                0.0000000000        2.6142169579        0.5461612844
Na                1.1251066176        0.0000000000        0.6452606454


