%mem=12GB
%chk=checkpoint.chk
%nprocshared=16
#P B3LYP/6-311+g(d) force ! ASE formatted method and basis

Gaussian input prepared by ASE

0 1
Na                8.2375728943        0.9932357905        0.8377604672
Na                0.0000000000        1.9036667176        0.4953952409
Na                2.0667753645        3.2739976230        2.1762362799
Na                2.5980012097        0.5258875209        1.0989662579
Na                5.5114259314        0.0000000000        1.6053483141
Na                6.5574024901        2.5774993899        2.7396690013
Na                7.1360685270        3.6568212966        0.0000000000


