%mem=12GB
%chk=checkpoint.chk
%nprocshared=16
#P B3LYP/6-311+g(d) force ! ASE formatted method and basis

Gaussian input prepared by ASE

0 1
Na                2.7263771555        4.4934584238        1.3725158443
Na                3.9338070528        0.0000000000        1.6109880331
Na                5.2860188858        2.7735268553        1.5203430638
Na                2.9730119930        2.2379926695        3.1666455746
Na                2.5253442632        1.9388893181        0.0000000000
Na                0.8552511333        0.1984338740        1.6171337660
Na                0.0000000000        3.1349018466        1.7722605967


