%mem=12GB
%chk=checkpoint.chk
%nprocshared=16
#P B3LYP/6-311+g(d) force ! ASE formatted method and basis

Gaussian input prepared by ASE

0 1
Na                3.1898704265        0.2912555663        0.6873738344
Na                6.0411675872        0.9347623630        0.0000000000
Na                4.1530673911        0.6531038436        3.5098126056
Na                5.4131677418        2.9835669257        2.0998575303
Na                2.8279176571        3.2740695672        0.6047856526
Na                0.0000000000        2.9650967736        1.5387216827
Na                0.2526832955        0.0000000000        1.2065532402


