%mem=12GB
%chk=checkpoint.chk
%nprocshared=16
#P B3LYP/6-311+g(d) force ! ASE formatted method and basis

Gaussian input prepared by ASE

0 1
Na                1.9981422157        2.9662910320        0.2552957439
Na                7.0592059206        0.1493881536        1.2450953085
Na                0.0000000000        1.1094452771        1.5039409110
Na                2.3570519903        0.0000000000        0.0171942927
Na                4.7564283081        1.7927357610        0.2422479050
Na                3.8176504953        3.3908158115        2.6047364419
Na                4.3880062348        4.7598328633        0.0000000000


