%mem=12GB
%chk=checkpoint.chk
%nprocshared=16
#P B3LYP/6-311+g(d) force ! ASE formatted method and basis

Gaussian input prepared by ASE

0 1
Na                6.9621980053        2.2015607240        2.3682575182
Na                8.9961074734        0.0000000000        2.5230240266
Na                9.5260588357        2.4134871246        0.8230030201
Na                7.4342215104        0.4279112647        0.0000000000
Na                4.6342176279        0.9626234072        0.9384903483
Na                2.1465950194        2.5841599569        1.3793187958
Na                0.0000000000        0.4924208996        1.5486456494


