%mem=12GB
%chk=checkpoint.chk
%nprocshared=16
#P B3LYP/6-311+g(d) force ! ASE formatted method and basis

Gaussian input prepared by ASE

0 1
Na                3.0857959376        0.0000000000        1.4172990919
Na                2.6853341676        2.9737618099        1.6489116883
Na                5.6673269858        3.3480316583        1.6123144630
Na                3.8631505867        5.7244478063        1.3756903552
Na                0.8942580138        5.3780963493        1.4572248468
Na                0.1735615427        2.8627566436        0.0000000000
Na                0.0000000000        2.9674920979        2.9895777720


