%mem=12GB
%chk=checkpoint.chk
%nprocshared=16
#P B3LYP/6-311+g(d) force ! ASE formatted method and basis

Gaussian input prepared by ASE

0 1
Na                1.1675870224        2.6878944442        0.0000000000
Na                1.2181950450        3.1565362170        2.9672649127
Na                0.0000000000        0.0000000000        0.6471361692
Na                2.1108673647        0.2955697463        2.7607748222
Na                3.3352138847        4.3477856963        1.2153355776
Na                3.8456997544        1.4608516344        0.5972400212
Na                6.6737146030        0.8880210734        1.3999033838


