%mem=12GB
%chk=checkpoint.chk
%nprocshared=16
#P B3LYP/6-311+g(d) force ! ASE formatted method and basis

Gaussian input prepared by ASE

0 1
Na                2.8696651944        2.2052460361        2.8779148224
Na                3.6433805734        2.4464086680        0.0000000000
Na                5.5240428138        3.3935913023        2.1390519629
Na                5.0409068828        0.4612839702        1.7634845763
Na                2.1908547800        0.0000000000        0.9647884722
Na                0.0000000000        1.6171904003        2.2286055997
Na                1.3308043913        4.0452677703        1.0713559248


