%mem=12GB
%chk=checkpoint.chk
%nprocshared=16
#P B3LYP/6-311+g(d) force ! ASE formatted method and basis

Gaussian input prepared by ASE

0 1
Na                2.7061488449        0.9272338933        0.0000000000
Na                1.7541109447        1.5220483929        2.7762015945
Na                0.0000000000        0.0000000000        0.8839898451
Na                0.5025460310        2.9194858454        0.4318267995
Na                2.6062752284        5.0578126294        0.6227263569
Na                4.2629440622        2.8122522405        1.7394173437
Na                5.5839754238        0.3622254507        0.6244047906


