%mem=12GB
%chk=checkpoint.chk
%nprocshared=16
#P B3LYP/6-311+g(d) force ! ASE formatted method and basis

Gaussian input prepared by ASE

0 1
Na                4.6294393297        0.0000000000        2.1621918042
Na                6.9334873586        1.7991367683        2.8473731163
Na                6.4393220578        1.0250478316        0.0000000000
Na                6.0063805092        3.8611953088        0.8733885169
Na                3.2990572944        4.5296172274        1.9770225374
Na                2.2731781542        1.7934867787        2.6670600380
Na                0.0000000000        1.4944614897        0.7329508516


