%mem=12GB
%chk=checkpoint.chk
%nprocshared=16
#P B3LYP/6-311+g(d) force ! ASE formatted method and basis

Gaussian input prepared by ASE

0 1
Na                2.4955879316        1.3785695751        3.1994622470
Na                2.9690499714        0.4216909851        0.6134538229
Na                5.1545180164        1.7555200795        2.0342279228
Na                2.8810124103        3.4845305163        1.3822041797
Na                0.8406238117        2.1513510115        0.0000000000
Na                0.0000000000        3.0696292558        2.5399039552
Na                0.2678427259        0.0000000000        2.1359989946


