%mem=12GB
%chk=checkpoint.chk
%nprocshared=16
#P B3LYP/6-311+g(d) force ! ASE formatted method and basis

Gaussian input prepared by ASE

0 1
Na                2.1607233280        1.4333034467        3.2282929027
Na                2.6032810997        0.0931036271        0.4950813030
Na                4.7763582997        1.3484238541        1.9622255042
Na                2.8623094610        3.1560419465        0.7236348463
Na                0.1888924321        3.1659364954        2.2993048635
Na                0.2955734254        1.6047049510        0.0000000000
Na                0.0000000000        0.0000000000        2.2322254090


