%mem=12GB
%chk=checkpoint.chk
%nprocshared=16
#P B3LYP/6-311+g(d) force ! ASE formatted method and basis

Gaussian input prepared by ASE

0 1
Na                2.4331427942        2.5084736152        0.0000000000
Na                3.9275554561        0.9308625664        2.1760193135
Na                3.7830128116        4.1115298609        2.2031949215
Na                5.1240997453        2.5769296717        0.4355704591
Na                1.4712338423        0.0000000000        1.0298791756
Na                1.6648400932        2.2419259560        2.8119947078
Na                0.0000000000        3.7003889245        0.9700266695


