%mem=12GB
%chk=checkpoint.chk
%nprocshared=16
#P B3LYP/6-311+g(d) force ! ASE formatted method and basis

Gaussian input prepared by ASE

0 1
Na                2.9622046789        0.4531352955        1.3457386387
Na                2.5093780040        4.3193270286        0.0000000000
Na                5.9110841595        0.0000000000        1.5866277526
Na                4.8772764846        2.7343954144        0.9534164095
Na                3.9449143820        3.6123302802        3.6734672047
Na                1.3754231434        2.8038618840        2.3364535641
Na                0.0000000000        0.2273847829        1.6908793582


