%mem=12GB
%chk=checkpoint.chk
%nprocshared=16
#P B3LYP/6-311+g(d) force ! ASE formatted method and basis

Gaussian input prepared by ASE

0 1
Na                4.7422436116        1.0017510273        0.0000000000
Na                4.3258542419        1.2253971008        2.9585081208
Na                7.0948388572        0.8502768574        1.8595172708
Na                5.6602844601        3.4527031248        1.4608145195
Na                2.7277967836        2.9442981609        1.0868627423
Na                2.1957696714        0.0000000000        1.2364337602
Na                0.0000000000        1.9516636260        1.8505350299


