%mem=12GB
%chk=checkpoint.chk
%nprocshared=16
#P B3LYP/6-311+g(d) force ! ASE formatted method and basis

Gaussian input prepared by ASE

0 1
Na                7.0506436477        0.0000000000        0.0661944237
Na               11.6913232296        0.4005932027        0.0000000000
Na                9.3693537981        0.5218573791        1.8971540384
Na                7.7331219624        2.8110958014        0.8542823762
Na                4.8895511880        2.0701027409        0.2598016779
Na                2.7084203404        0.4573735872        1.5445030813
Na                0.0000000000        0.6148561372        0.2606423548


