%mem=12GB
%chk=checkpoint.chk
%nprocshared=16
#P B3LYP/6-311+g(d) force ! ASE formatted method and basis

Gaussian input prepared by ASE

0 1
Na                0.0558254639        0.0000000000        2.0264868429
Na                4.3759798873        0.1786465920        2.1507346272
Na                6.1174079833        2.1925799589        0.7713876014
Na                4.3182086339        4.2130797872        2.0612743789
Na                2.1229963700        2.1640132134        2.2505179269
Na                0.1471735880        2.2013502329        0.0000000000
Na                0.0000000000        4.2882080714        2.1447678132


