%mem=12GB
%chk=checkpoint.chk
%nprocshared=16
#P B3LYP/6-311+g(d) force ! ASE formatted method and basis

Gaussian input prepared by ASE

0 1
Na                2.9500845147        0.1220724588        1.6878721328
Na                0.2641801809        0.0000000000        1.9911376074
Na                5.4787760213        1.4403819723        1.9133464828
Na                2.9918845262        2.8449627855        1.7448970790
Na                1.7573130581        1.4702498487        3.7597530487
Na                1.3319511565        1.5558043053        0.0000000000
Na                0.0000000000        2.7150239875        2.0820872303


