%mem=12GB
%chk=checkpoint.chk
%nprocshared=16
#P B3LYP/6-311+g(d) force ! ASE formatted method and basis

Gaussian input prepared by ASE

0 1
Na                2.6223958759        2.0093078096        3.2419157446
Na                2.7488016325        0.0000000000        1.4716495278
Na                5.1535535853        1.5222092742        1.9710916302
Na                3.7030932731        3.9630887674        1.4374944665
Na                0.9042436950        3.7265086929        2.1059021246
Na                1.9992033923        2.1398537730        0.0000000000
Na                0.0000000000        1.1190520344        2.0025989530


