%mem=12GB
%chk=checkpoint.chk
%nprocshared=16
#P B3LYP/6-311+g(d) force ! ASE formatted method and basis

Gaussian input prepared by ASE

0 1
Na                6.3677045718        2.1006799054        0.3077941651
Na                4.3692956550        3.4949612411        2.0619835871
Na                7.9995779970        0.0000000000        1.6939497438
Na                5.2716762081        0.7030302694        2.7061618468
Na                4.0567438432        0.2111580604        0.0000000000
Na                1.9465612885        2.1538594393        0.8885659617
Na                0.0000000000        0.0601785010        1.7916130484


