%mem=12GB
%chk=checkpoint.chk
%nprocshared=16
#P B3LYP/6-311+g(d) force ! ASE formatted method and basis

Gaussian input prepared by ASE

0 1
Na                2.5575523075        0.5165204092        2.5817433727
Na                2.2412772589        2.0111596810        0.0000000000
Na                4.8791381204        2.0119065470        1.4212810221
Na                2.5545665352        3.5074788392        2.5820141399
Na                0.1700782840        4.0192459751        0.8505839986
Na                0.0000000000        2.0101561637        3.0819397109
Na                0.1730191761        0.0000000000        0.8519647688


