%mem=12GB
%chk=checkpoint.chk
%nprocshared=16
#P B3LYP/6-311+g(d) force ! ASE formatted method and basis

Gaussian input prepared by ASE

0 1
Na                2.8670512779        3.2535515218        2.2861746534
Na                2.8307364641        0.1312683855        2.5192276663
Na                5.0418866247        1.5908807857        1.3805707148
Na                2.5147995821        1.7569227220        0.0000000000
Na                0.8037545322        1.8128728553        3.3542557672
Na                0.0000000000        3.0695669528        1.0270647490
Na                0.1623547904        0.0000000000        1.0030972319


