%mem=12GB
%chk=checkpoint.chk
%nprocshared=16
#P B3LYP/6-311+g(d) force ! ASE formatted method and basis

Gaussian input prepared by ASE

0 1
Na                1.7384576939        0.0000000000        0.0000000000
Na                4.7182280830        0.0932571039        0.3462896287
Na                7.3278128614        0.8746323602        1.5967696579
Na                5.1583896108        2.9199417903        1.2620323165
Na                2.4825593124        4.2551130066        1.0054330947
Na                0.1193312747        2.4441797535        0.6302808018
Na                0.0000000000        0.0588937452        2.4422637422


