%mem=12GB
%chk=checkpoint.chk
%nprocshared=16
#P B3LYP/6-311+g(d) force ! ASE formatted method and basis

Gaussian input prepared by ASE

0 1
Na                4.3539911454        4.9800715708        1.3294463368
Na                2.7513838338        2.6112829045        0.4109228104
Na                5.0123578630        0.6422394568        0.2452420791
Na                2.5763555740        0.0000000000        1.8727698143
Na                0.7347286423        2.2482827228        2.6023223346
Na                0.3798575788        0.8114524172        0.0000000000
Na                0.0000000000        3.7825419600        0.1303720608


