%mem=12GB
%chk=checkpoint.chk
%nprocshared=16
#P B3LYP/6-311+g(d) force ! ASE formatted method and basis

Gaussian input prepared by ASE

0 1
Na                1.9776281072        2.0288043669        0.0000000000
Na                1.4793607259        4.3474849364        1.5163100628
Na                7.0748636376        2.2613967389        1.8142851389
Na                4.1796085400        2.7300822905        1.6192997988
Na                2.1378609688        2.5427383381        3.5792011407
Na                2.6757786652        0.0000000000        1.8531451900
Na                0.0000000000        1.6093325158        1.9712052052


