%mem=12GB
%chk=checkpoint.chk
%nprocshared=16
#P B3LYP/6-311+g(d) force ! ASE formatted method and basis

Gaussian input prepared by ASE

0 1
Na                2.3354411582        1.2237973914        1.3895700134
Na                2.7436975346        3.7712098946        2.9203508482
Na                0.0000000000        3.0065291026        1.9862571051
Na                2.0776764860        3.8672841307        0.0000000000
Na                5.0626563121        0.0000000000        1.6427559655
Na                4.7751722528        2.8934301728        0.8923546483
Na                7.3223954993        4.2159635779        1.7780828257


