%mem=12GB
%chk=checkpoint.chk
%nprocshared=16
#P B3LYP/6-311+g(d) force ! ASE formatted method and basis

Gaussian input prepared by ASE

0 1
Na                4.4016661903        1.4932711707        2.9567730642
Na                2.4877930479        0.0000000000        1.1883093047
Na                0.0000000000        1.4954004378        1.9497462612
Na                2.4860628199        2.9898801505        1.1893329355
Na                4.8083766661        1.4958657152        0.0000000000
Na                6.7144768138        2.9942580331        1.7701233503
Na                6.7222932456        0.0014153309        1.7696061557


