%mem=12GB
%chk=checkpoint.chk
%nprocshared=16
#P B3LYP/6-311+g(d) force ! ASE formatted method and basis

Gaussian input prepared by ASE

0 1
Na                2.3816363344        4.0909955591        1.8497842222
Na                2.9014738679        2.0955028957        0.0000000000
Na                7.0810027967        2.1148149348        1.4382542012
Na                4.3545118507        1.7225372680        2.3182761331
Na                1.5927745755        1.9601925891        3.4502759652
Na                1.8858410866        0.0000000000        1.4997376940
Na                0.0000000000        2.3718250256        0.8838358535


