%mem=12GB
%chk=checkpoint.chk
%nprocshared=16
#P B3LYP/6-311+g(d) force ! ASE formatted method and basis

Gaussian input prepared by ASE

0 1
Na                0.6851852730        4.1671861400        1.9548327037
Na                0.0000000000        1.5272912356        3.2083209847
Na                5.5944758451        5.2109486056        2.2443269417
Na                3.1944461642        4.0471695290        3.5976980832
Na                2.2152485288        2.4787020566        0.0000000000
Na                2.9308430778        1.2156206202        2.6289274328
Na                5.6475009928        0.0000000000        2.3193482806


