%mem=12GB
%chk=checkpoint.chk
%nprocshared=16
#P B3LYP/6-311+g(d) force ! ASE formatted method and basis

Gaussian input prepared by ASE

0 1
Na                6.4415105641        0.2546981409        2.0133183231
Na                3.9179491942        1.8739718754        2.0326668954
Na                5.0352122583        4.5992003744        1.4754720778
Na                2.2147062959        4.3169150436        2.4390225216
Na                0.0000000000        2.3391849389        1.9825711717
Na                1.8582329296        1.0616204920        0.0000000000
Na                1.6958762684        0.0000000000        2.7890111685


