%mem=12GB
%chk=checkpoint.chk
%nprocshared=16
#P B3LYP/6-311+g(d) force ! ASE formatted method and basis

Gaussian input prepared by ASE

0 1
Na                4.3793691854        1.5136650584        0.0000000000
Na                5.3675447888        2.1870621177        2.8825188831
Na                6.5756889552        0.0767909934        1.2684067663
Na                3.8355353153        0.0000000000        2.2355838955
Na                4.1811407096        3.9926607859        1.1819218040
Na                2.2939497746        2.2745550282        2.2065407885
Na                0.0000000000        0.6746640827        1.3665923612


