%mem=12GB
%chk=checkpoint.chk
%nprocshared=16
#P B3LYP/6-311+g(d) force ! ASE formatted method and basis

Gaussian input prepared by ASE

0 1
Na                1.6317962862        2.5067702625        0.0000000000
Na                2.9950635399        4.9905226346        0.9627558728
Na                0.0000000000        4.8086195537        1.0270478498
Na                0.2661270220        3.8209310330        3.8537333072
Na                5.4665859968        3.8293883805        2.1951842025
Na                2.7891490237        2.6000647891        2.7654862987
Na                1.8218123097        0.0000000000        1.6293007282


