%mem=12GB
%chk=checkpoint.chk
%nprocshared=16
#P B3LYP/6-311+g(d) force ! ASE formatted method and basis

Gaussian input prepared by ASE

0 1
Na                4.6032977510        4.4427565070        0.0518382072
Na                0.1181177546        3.7477266460        0.1972631365
Na                0.0000000000        0.7624116173        0.0000000000
Na                2.6593784441        2.1550249478        0.1046741596
Na                4.7512598255        0.0000000000        0.1468744085
Na                7.6425246234        0.7914986835        0.1241296952
Na                7.5312704022        3.7856608397        0.0689626983


