%mem=12GB
%chk=checkpoint.chk
%nprocshared=16
#P B3LYP/6-311+g(d) force ! ASE formatted method and basis

Gaussian input prepared by ASE

0 1
Na                5.0947955131        2.1328698730        0.0000000000
Na                5.5911234208        1.9186135635        2.9415928650
Na                6.5901443867        4.3091051045        1.4262195004
Na                3.9412499144        5.6907781107        1.7377536873
Na                3.7276080324        0.0000000000        1.5954964807
Na                2.9226950329        2.8682009721        1.9393017780
Na                0.0000000000        3.3771503867        1.4897828900


