%mem=12GB
%chk=checkpoint.chk
%nprocshared=16
#P B3LYP/6-311+g(d) force ! ASE formatted method and basis

Gaussian input prepared by ASE

0 1
Na                4.9106485350        0.0301126748        1.2864382391
Na                3.5059202433        4.8127322929        2.1128177456
Na                7.7164323308        0.0000000000        2.3455433726
Na                6.9229081619        2.0002995040        0.2548954898
Na                3.9944395454        2.6324518977        0.1094737413
Na                2.2070194529        0.2257851901        0.0000000000
Na                0.0000000000        0.3192088044        2.0316946251


