%mem=12GB
%chk=checkpoint.chk
%nprocshared=16
#P B3LYP/6-311+g(d) force ! ASE formatted method and basis

Gaussian input prepared by ASE

0 1
Na                4.4862675665        0.0000000000        0.0713246792
Na                5.5138757574        3.9431946281        1.3260261131
Na                6.9727833431        1.6839796761        0.0000000000
Na                6.8745451032        1.8556200160        2.9924179567
Na                4.2909642439        0.3261695495        3.0448391773
Na                2.9834223851        2.3226598033        1.2299290550
Na                0.0000000000        2.1423663422        1.4429608637


