%mem=12GB
%chk=checkpoint.chk
%nprocshared=16
#P B3LYP/6-311+g(d) force ! ASE formatted method and basis

Gaussian input prepared by ASE

0 1
Na                4.6626885892        2.3348179760        0.0000000000
Na                4.4770882631        4.8789247320        1.5856414104
Na                7.5903991317        2.1149749418        0.6366779556
Na                5.5689577831        2.3814213223        2.8454882469
Na                4.0762212916        0.0000000000        1.7960117405
Na                2.6422140103        2.5951420943        2.2024959850
Na                0.0000000000        2.3162545406        0.8045856499


