%mem=12GB
%chk=checkpoint.chk
%nprocshared=16
#P B3LYP/6-311+g(d) force ! ASE formatted method and basis

Gaussian input prepared by ASE

0 1
Na                2.8283520134        2.1901695211        0.1114324340
Na                4.2557028349        0.0000000000        1.1869004211
Na                0.0000000000        2.2038552068        0.9419443533
Na                2.1990154058        1.6963234468        2.8333571307
Na                3.6947166781        4.2614170542        1.8328682948
Na                5.2966107957        2.1143689652        2.7649145493
Na                5.6201633378        2.5761747527        0.0000000000


