%mem=12GB
%chk=checkpoint.chk
%nprocshared=16
#P B3LYP/6-311+g(d) force ! ASE formatted method and basis

Gaussian input prepared by ASE

0 1
Na                3.8640425021        0.1836775936        1.5244675827
Na                6.6555418007        0.2261090245        2.6063355106
Na                5.9661589286        1.8494731605        0.1843069228
Na                4.2272740296        4.2291926420        0.7493669989
Na                2.7552686333        2.6516036036        2.8360888493
Na                0.0000000000        1.7286921227        2.0875588168
Na                1.2842357292        0.0000000000        0.0000000000


