%mem=12GB
%chk=checkpoint.chk
%nprocshared=16
#P B3LYP/6-311+g(d) force ! ASE formatted method and basis

Gaussian input prepared by ASE

0 1
Na                3.9688475349        2.9618013573        2.8627512797
Na                3.8055419359        0.0000000000        3.3119841466
Na                6.7409416596        3.8211743270        2.1087236935
Na                4.8541970465        2.8326552372        0.0000000000
Na                2.4889013744        1.2290025078        0.9152712428
Na                0.0000000000        2.8524267169        1.3393514075
Na                1.6075026168        4.8178506045        2.9413345541


