%mem=12GB
%chk=checkpoint.chk
%nprocshared=16
#P B3LYP/6-311+g(d) force ! ASE formatted method and basis

Gaussian input prepared by ASE

0 1
Na                2.7564093517        2.6359740534        0.0000000000
Na                4.4388046591        0.8295073964        1.9789503162
Na                0.0000000000        3.0699763263        0.7082145069
Na                1.5917436639        1.6871232769        2.6647036114
Na                5.5779851956        2.9522232648        0.4201340941
Na                3.5811122161        3.5351394798        2.3960811131
Na                2.4023238270        0.0000000000        0.4081386829


