%mem=12GB
%chk=checkpoint.chk
%nprocshared=16
#P B3LYP/6-311+g(d) force ! ASE formatted method and basis

Gaussian input prepared by ASE

0 1
Na                0.0179617865        5.5226540328        0.4916852990
Na                7.6560931776        1.2448571971        0.7837095278
Na                8.0345297556        4.1942223785        1.1679130666
Na                5.4745792800        3.1522379284        0.0000000000
Na                2.6645892026        4.1219143088        0.4179011888
Na                0.2791724899        2.7514280257        1.6129295885
Na                0.0000000000        0.0000000000        0.4454712487


