%mem=12GB
%chk=checkpoint.chk
%nprocshared=16
#P B3LYP/6-311+g(d) force ! ASE formatted method and basis

Gaussian input prepared by ASE

0 1
Na                4.3706880451        1.9929500243        0.0000000000
Na                5.3720468406        0.0000000000        1.8278776003
Na                0.0000000000        1.8548755648        1.8363166804
Na                2.8334207080        1.3473281728        2.0900626564
Na                6.4030805912        2.6856816128        1.6072231409
Na                3.8837331060        4.0333112209        1.9808970028
Na                4.7753873302        1.9974728546        3.8219235749


