%mem=12GB
%chk=checkpoint.chk
%nprocshared=16
#P B3LYP/6-311+g(d) force ! ASE formatted method and basis

Gaussian input prepared by ASE

0 1
Na                2.8268562172        0.9872297575        1.1288174438
Na                2.8506843562        2.3277782075        3.8200459085
Na                0.0000000000        0.0015484049        1.3053463527
Na                0.6338408618        2.8797802332        1.8733100301
Na                2.8107244906        3.7659486127        0.0000000000
Na                5.0253213195        2.8884551331        1.8289094854
Na                5.6542407033        0.0000000000        1.3116071982


