%mem=12GB
%chk=checkpoint.chk
%nprocshared=16
#P B3LYP/6-311+g(d) force ! ASE formatted method and basis

Gaussian input prepared by ASE

0 1
Na                7.0296013545        0.0000000000        0.2364698366
Na                9.9756893847        0.4698795086        0.5526427843
Na                9.9782352825        3.4719064957        0.6295965382
Na                7.2181957435        4.5490143779        0.1520177875
Na                5.1773059354        2.3515619297        0.0253021459
Na                2.5658710174        2.3115803913        1.4949909305
Na                0.0000000000        1.9112419784        0.0000000000


