%mem=12GB
%chk=checkpoint.chk
%nprocshared=16
#P B3LYP/6-311+g(d) force ! ASE formatted method and basis

Gaussian input prepared by ASE

0 1
Na                1.6763447983        3.5296712321        0.3409299632
Na                4.1099810479        4.6598785827        1.6760435137
Na                6.8683293883        0.7914911384        1.2031821326
Na                4.0548813051        1.7731986439        0.8726340780
Na                1.9238032499        0.0000000000        2.0408108830
Na                0.1943819301        2.3685392432        2.6814616540
Na                0.0000000000        1.0632095878        0.0000000000


