%mem=12GB
%chk=checkpoint.chk
%nprocshared=16
#P B3LYP/6-311+g(d) force ! ASE formatted method and basis

Gaussian input prepared by ASE

0 1
Na                3.4584448296        2.5665814091        2.0205057767
Na                0.5949080219        3.4694678290        1.9980141326
Na                0.0000000000        1.3115684229        0.0000000000
Na                2.5988047168        0.0000000000        0.7187460451
Na                5.2956296484        0.1966101912        2.0084489843
Na                7.4133584592        1.8749315451        0.7073772061
Na                5.3749835949        4.0210073847        0.2242334539


