%mem=12GB
%chk=checkpoint.chk
%nprocshared=16
#P B3LYP/6-311+g(d) force ! ASE formatted method and basis

Gaussian input prepared by ASE

0 1
Na                4.5374506053        2.5995393478        3.4943964765
Na                3.3359476137        0.0000000000        2.5983753624
Na                0.0000000000        4.3593699718        1.8478133236
Na                2.9102932904        3.9049761934        1.3344706690
Na                3.8937752915        1.3994174157        0.0000000000
Na                6.5140005239        2.1029143678        1.2869327011
Na                8.1905301897        4.5062350803        1.8889354485


