%mem=12GB
%chk=checkpoint.chk
%nprocshared=16
#P B3LYP/6-311+g(d) force ! ASE formatted method and basis

Gaussian input prepared by ASE

0 1
Na                2.7375856387        1.9626304711        2.9838282442
Na                4.9589137468        2.6119146710        0.1327232044
Na                0.0000000000        2.2039195930        1.9789500786
Na                2.1531877301        2.3535462152        0.0000000000
Na                3.6541570784        4.3704410552        1.8665659255
Na                3.7619872153        0.0000000000        1.2336157531
Na                5.5264374414        2.0267225025        2.8176717583


