%mem=12GB
%chk=checkpoint.chk
%nprocshared=16
#P B3LYP/6-311+g(d) force ! ASE formatted method and basis

Gaussian input prepared by ASE

0 1
Na                6.7311796598        0.0000000000        2.5454104258
Na                8.0200679899        0.9366690427        0.0000000000
Na                8.6144676838        2.3346385270        2.5788976848
Na                6.5940512908        3.4871281225        0.6829074415
Na                4.4034798945        1.6818309378        1.6667668225
Na                1.8572334101        0.7742659530        0.3711276050
Na                0.0000000000        2.2771468417        2.1815357354


