%mem=12GB
%chk=checkpoint.chk
%nprocshared=16
#P B3LYP/6-311+g(d) force ! ASE formatted method and basis

Gaussian input prepared by ASE

0 1
Na                2.2619435043        0.0000000000        2.4078781172
Na                1.8745016620        2.6688596023        2.5768274252
Na                0.0000000000        1.1280518131        1.0042839385
Na                2.7028647165        1.3002971844        0.0000000000
Na                4.1376475091        3.5806950483        1.4044423589
Na                4.7360647280        1.0773799096        2.2462298324
Na                7.4490383214        0.9283235890        1.2487928200


