%mem=12GB
%chk=checkpoint.chk
%nprocshared=16
#P B3LYP/6-311+g(d) force ! ASE formatted method and basis

Gaussian input prepared by ASE

0 1
Na                2.7947125084        2.7225715139        2.6970633118
Na                4.0448763367        5.4038575654        3.2455049316
Na                3.4507399618        0.0000000000        1.6278321079
Na                5.6020237748        2.0604119482        1.8568907674
Na                5.1136684349        4.7082730884        0.5237188149
Na                2.2596088953        3.9356534447        0.0000000000
Na                0.0000000000        3.4274569473        1.8922176548


