%mem=12GB
%chk=checkpoint.chk
%nprocshared=16
#P B3LYP/6-311+g(d) force ! ASE formatted method and basis

Gaussian input prepared by ASE

0 1
Na                2.6833739417        0.0000000000        1.3953793954
Na                2.9827262562        2.9511027820        0.8907144242
Na                5.8210320072        2.2023776494        0.2112012542
Na                5.2833258289        4.3926125908        2.1686264354
Na                3.7071454566        5.7259505167        0.0000000000
Na                1.2578167301        5.2943405369        1.6594899695
Na                0.0000000000        2.8522574016        0.4942265830


