%mem=12GB
%chk=checkpoint.chk
%nprocshared=16
#P B3LYP/6-311+g(d) force ! ASE formatted method and basis

Gaussian input prepared by ASE

0 1
Na                2.5167951593        0.0000000000        1.9046700597
Na                2.5114702342        1.7993458618        3.8107997499
Na                1.1312371415        3.2995672662        1.9054058904
Na                0.0000000000        0.7534682033        1.9073977859
Na                2.5099505384        1.7965640652        0.0000000000
Na                5.0299801961        0.7509639365        1.9073942882
Na                4.0118688542        3.1822706864        1.9034915569


