%mem=12GB
%chk=checkpoint.chk
%nprocshared=16
#P B3LYP/6-311+g(d) force ! ASE formatted method and basis

Gaussian input prepared by ASE

0 1
Na                3.2799815037        2.0430042251        0.0000000000
Na                1.4743114230        0.0000000000        1.2420763870
Na                6.9544484651        1.3216965637        3.0240613302
Na                4.0507102337        0.7353969182        2.5872760925
Na                0.0000000000        1.3852784863        3.4580260970
Na                2.5286315806        2.9005619188        4.0143353875
Na                2.8111315044        4.5771131139        1.5395550390


