%mem=12GB
%chk=checkpoint.chk
%nprocshared=16
#P B3LYP/6-311+g(d) force ! ASE formatted method and basis

Gaussian input prepared by ASE

0 1
Na                4.6163202595        1.8960293455        0.0000000000
Na                4.8520727497        0.0000000000        2.3068680721
Na                7.5554085463        1.1871468770        2.8432718261
Na                6.6603351099        3.6342362446        1.3521754598
Na                4.3051792399        4.9677170033        2.6484736389
Na                2.9360390151        2.3021352274        2.4510239493
Na                0.0000000000        1.8739444995        2.0425570651


