%mem=12GB
%chk=checkpoint.chk
%nprocshared=16
#P B3LYP/6-311+g(d) force ! ASE formatted method and basis

Gaussian input prepared by ASE

0 1
Na                2.9373361266        0.4405348789        2.6783562730
Na                4.8453151154        2.7476008636        2.5103241032
Na                7.7492010553        2.0087678442        2.6890282612
Na                5.7429957059        0.0000000000        1.7127508856
Na                3.7827493006        1.4957036587        0.0000000000
Na                1.9678462557        3.1203852623        1.7504999228
Na                0.0000000000        1.0583010819        2.6845569635


