%mem=12GB
%chk=checkpoint.chk
%nprocshared=16
#P B3LYP/6-311+g(d) force ! ASE formatted method and basis

Gaussian input prepared by ASE

0 1
Na                2.3736264575        2.0420410338        0.0000000000
Na                1.0305747138        3.5211677811        1.6201083890
Na                0.0000000000        1.1762891469        1.6114041659
Na                2.4116708681        1.9215650500        3.1169049548
Na                4.7716760866        0.9255407339        1.6844545129
Na                2.4446396739        0.0000000000        1.3581778518
Na                4.1537206381        3.5381823306        1.4787126458


