%mem=12GB
%chk=checkpoint.chk
%nprocshared=16
#P B3LYP/6-311+g(d) force ! ASE formatted method and basis

Gaussian input prepared by ASE

0 1
Na                3.4072756859        3.0007384656        1.7791963497
Na                6.1232282036        2.5541195521        2.9680742681
Na                5.7958649772        2.6482062605        0.0000000000
Na                5.9448467148        0.0000000000        1.4031793769
Na                2.9562031772        0.0268864455        1.7200492921
Na                0.0000000000        0.4789062833        1.4957798990
Na                0.4516641426        3.4445041591        1.5099007531


