%mem=12GB
%chk=checkpoint.chk
%nprocshared=16
#P B3LYP/6-311+g(d) force ! ASE formatted method and basis

Gaussian input prepared by ASE

0 1
Na                4.5666613531        1.3524622829        0.0000000000
Na                6.9194912145        0.4587659364        1.6257607993
Na                4.8455178267        4.2742759806        0.6254620233
Na                4.8484761491        2.2586344541        2.8429742734
Na                1.8864110469        1.8695167589        3.1754110391
Na                2.0139146650        0.0000000000        0.8310839608
Na                0.0000000000        2.2173504794        0.8710724422


