%mem=12GB
%chk=checkpoint.chk
%nprocshared=16
#P B3LYP/6-311+g(d) force ! ASE formatted method and basis

Gaussian input prepared by ASE

0 1
Na                2.6436037471        2.1602945581        0.0000000000
Na                2.3026432454        0.0000000000        1.8953642127
Na                4.9483786700        1.1612746695        1.4105856358
Na                4.0390425457        3.9192293387        1.7909779746
Na                1.1348032191        3.9541089781        1.3842779184
Na                2.1571309469        2.3293954563        3.2853055775
Na                0.0000000000        1.4298847391        1.3014378550


