%mem=12GB
%chk=checkpoint.chk
%nprocshared=16
#P B3LYP/6-311+g(d) force ! ASE formatted method and basis

Gaussian input prepared by ASE

0 1
Na                3.1491449788        0.0000000000        1.8320513506
Na                0.0000000000        3.1161315521        2.2387299710
Na                5.5559097602        1.6133595310        1.9895657992
Na                3.0675638224        3.0884454350        1.7958026894
Na                1.4355515232        1.6885784129        0.0000000000
Na                1.5197975657        1.2856620799        3.6882584201
Na                0.0250480837        0.0337871878        1.7318865146


