%mem=12GB
%chk=checkpoint.chk
%nprocshared=16
#P B3LYP/6-311+g(d) force ! ASE formatted method and basis

Gaussian input prepared by ASE

0 1
Na                0.7383184733        0.0000000000        0.4089383361
Na                5.0556983403        1.8278143308        0.0000000000
Na                5.3616105559        1.3257398022        2.9396814197
Na                2.6403467988        1.8686500087        1.7889431298
Na                0.1024396995        1.0230466942        3.1496331540
Na                0.0000000000        2.8798073317        0.8016076286
Na                2.0666410226        4.8210018985        1.7768768697


