%mem=12GB
%chk=checkpoint.chk
%nprocshared=16
#P B3LYP/6-311+g(d) force ! ASE formatted method and basis

Gaussian input prepared by ASE

0 1
Na                1.8673731550        0.7220752280        0.3206232970
Na                3.0770577582        0.0000000000        2.9577946821
Na                0.0000000000        3.0434625940        0.0000000000
Na                1.4641518530        4.1522347670        2.3665526736
Na                6.1621374661        1.2527383391        0.1204488815
Na                3.8863119098        2.5448171108        1.5939754457
Na                5.3196774153        5.1652178902        1.2644629432


