%mem=12GB
%chk=checkpoint.chk
%nprocshared=16
#P B3LYP/6-311+g(d) force ! ASE formatted method and basis

Gaussian input prepared by ASE

0 1
Na                2.0133267019        0.0000000000        2.3025835485
Na                0.0000000000        1.4244819724        4.0110245366
Na                7.0887077409        2.5565899242        2.6250556447
Na                4.5838045792        1.0973681601        3.3941679417
Na                1.8845735551        1.9152334020        0.0000000000
Na                2.2864925287        2.9396057358        2.7925219299
Na                1.9021653223        5.9147926258        2.7077942433


