%mem=12GB
%chk=checkpoint.chk
%nprocshared=16
#P B3LYP/6-311+g(d) force ! ASE formatted method and basis

Gaussian input prepared by ASE

0 1
Na                1.8863877504        1.3619866513        0.0000000000
Na                0.0000000000        0.0000000000        1.8963799437
Na                1.8171975382        3.8691491129        1.6531585643
Na                2.5339692173        1.2401669426        2.9148872186
Na                4.6981540955        0.7807594872        0.8858378007
Na                6.5793028474        2.9868325379        1.6593306311
Na                7.5075436895        0.1368662551        1.7129276218


