%mem=12GB
%chk=checkpoint.chk
%nprocshared=16
#P B3LYP/6-311+g(d) force ! ASE formatted method and basis

Gaussian input prepared by ASE

0 1
Na                0.0000000000        1.9640859063        0.0000000000
Na                1.1758561381        4.7195124422        0.0820308699
Na                0.3275638791        1.4581752113        2.9362365955
Na                2.6632174804        2.4112687786        1.3032452696
Na                4.9419306675        3.6329025396        2.8315211286
Na                5.3447371978        2.7342242071        0.0013503867
Na                4.1701941457        0.0000000000        0.3343412811


