%mem=12GB
%chk=checkpoint.chk
%nprocshared=16
#P B3LYP/6-311+g(d) force ! ASE formatted method and basis

Gaussian input prepared by ASE

0 1
Na                5.2531302285        1.9891214308        3.2959865885
Na                4.2501859230        4.0598702414        0.0000000000
Na                5.8548277755        4.7979439097        2.4267279179
Na                6.7045001536        2.4882658929        0.7215137148
Na                5.0650610964        0.0000000000        1.0702196407
Na                2.8090283713        1.9212392976        1.5484055586
Na                0.0000000000        2.9527579749        1.7235494389


