%mem=12GB
%chk=checkpoint.chk
%nprocshared=16
#P B3LYP/6-311+g(d) force ! ASE formatted method and basis

Gaussian input prepared by ASE

0 1
Na                1.9994945428        2.9843044864        0.0023581207
Na                3.2410880291        3.8459658917        2.5866324606
Na                4.9814078049        3.0674303554        0.3024435980
Na                5.5788609884        0.7979219707        2.1695182205
Na                0.0000000000        2.0822771836        2.0618052868
Na                2.6549871686        0.9061568458        2.8446297622
Na                2.2973395488        0.0000000000        0.0000000000


