%mem=12GB
%chk=checkpoint.chk
%nprocshared=16
#P B3LYP/6-311+g(d) force ! ASE formatted method and basis

Gaussian input prepared by ASE

0 1
Na                0.0467440662        3.0866051515        1.2502028092
Na                3.1176307128        0.0444775904        2.1446886574
Na                5.5709077342        1.5659558552        1.6687763688
Na                3.1087587951        3.1306898182        1.8881812677
Na                1.1548048154        1.9581905078        3.5533774012
Na                1.6618501909        1.1678695586        0.0000000000
Na                0.0000000000        0.0000000000        1.9159573248


