%mem=12GB
%chk=checkpoint.chk
%nprocshared=16
#P B3LYP/6-311+g(d) force ! ASE formatted method and basis

Gaussian input prepared by ASE

0 1
Na                2.4541981840        1.9016486644        0.0000000000
Na                2.4597807313        0.0000000000        1.9836222245
Na                0.0000000000        0.9280949034        1.9843404342
Na                1.1167042735        3.3098874818        1.9843342419
Na                2.4602948068        1.9022675414        3.9671088581
Na                3.8001801542        3.3112944703        1.9811979946
Na                4.9195997475        0.9293364200        1.9811354657


