%mem=12GB
%chk=checkpoint.chk
%nprocshared=16
#P B3LYP/6-311+g(d) force ! ASE formatted method and basis

Gaussian input prepared by ASE

0 1
Na                3.8787901108        1.8349631123        0.0000000000
Na                4.9939137279        0.7821381888        2.5848864930
Na                7.6485034164        0.0310233846        1.4090470710
Na                6.5398859689        2.7921718764        0.9987081575
Na                4.0145720730        3.6128365236        2.4012749030
Na                1.3496513712        2.6788056229        1.3766014971
Na                0.0000000000        0.0000000000        1.5022552258


