%mem=12GB
%chk=checkpoint.chk
%nprocshared=16
#P B3LYP/6-311+g(d) force ! ASE formatted method and basis

Gaussian input prepared by ASE

0 1
Na                0.9491216429        2.7832742610        0.5867017117
Na                6.0307458554        0.5612337178        0.4326988458
Na                2.5446118621        5.0804399036        1.6698830792
Na                3.9487932157        2.7155384398        0.4751296567
Na                3.9935789134        0.6215057072        2.6280852472
Na                0.9918099702        0.6950155970        2.7430272584
Na                0.0000000000        0.0000000000        0.0000000000


