%mem=12GB
%chk=checkpoint.chk
%nprocshared=16
#P B3LYP/6-311+g(d) force ! ASE formatted method and basis

Gaussian input prepared by ASE

0 1
Na                1.3856196150        0.0000000000        2.5136611861
Na                5.3824368945        1.7444108985        1.0057010544
Na                5.5074538511        3.3973375228        3.4980690882
Na                2.8466306497        2.6239679025        2.3515749098
Na                0.6588917781        3.8275515027        4.0255459733
Na                0.0000000000        2.4384666350        1.4520029979
Na                1.9036173021        4.2420707635        0.0000000000


