%mem=12GB
%chk=checkpoint.chk
%nprocshared=16
#P B3LYP/6-311+g(d) force ! ASE formatted method and basis

Gaussian input prepared by ASE

0 1
Na                2.3295102624        2.4787403941        2.0353031822
Na                6.6404797343        3.1001145554        0.0000000000
Na               10.4435605053        0.8090235825        1.8481661727
Na                7.7054233558        0.3861385984        0.7019830739
Na                5.0877881914        1.3136924709        1.8423765927
Na                2.7950908919        0.0000000000        0.4164732934
Na                0.0000000000        0.8055668210        1.1531691402


