%mem=12GB
%chk=checkpoint.chk
%nprocshared=16
#P B3LYP/6-311+g(d) force ! ASE formatted method and basis

Gaussian input prepared by ASE

0 1
Na                2.5801935356        3.6379335022        2.5332168084
Na                4.1472020349        3.9710874185        0.0000000000
Na                7.0624051389        4.2713398108        0.6326241002
Na                5.3426538369        2.4783674717        2.3056593953
Na                4.2948444138        0.0000000000        0.9652383916
Na                2.0400691596        1.8356624510        0.2033487508
Na                0.0000000000        3.8725203965        1.0238140648


