%mem=12GB
%chk=checkpoint.chk
%nprocshared=16
#P B3LYP/6-311+g(d) force ! ASE formatted method and basis

Gaussian input prepared by ASE

0 1
Na                2.5835646488        2.4433749049        2.9534316725
Na                2.5518884787        5.1816542116        1.7377690607
Na                0.0000000000        1.6086304490        1.6940783946
Na                2.1777803244        2.7718217301        0.0000000000
Na                5.1637172926        3.8852771021        2.4073654478
Na                5.0560863246        1.9133908887        0.1416723078
Na                4.2125383577        0.0000000000        2.2986001355


