%mem=12GB
%chk=checkpoint.chk
%nprocshared=16
#P B3LYP/6-311+g(d) force ! ASE formatted method and basis

Gaussian input prepared by ASE

0 1
Na                2.4566870954        3.2847651098        1.6191838346
Na                2.4799563223        1.2903172054        0.0000000000
Na                3.8323734231        0.0000000000        2.0026879211
Na                4.9161715246        2.5263075635        1.9819513736
Na                2.4498379846        1.6011027173        3.8011490161
Na                0.0000000000        2.5257631581        1.9765560295
Na                0.9788432524        0.1094831699        1.9663704125


