%mem=12GB
%chk=checkpoint.chk
%nprocshared=16
#P B3LYP/6-311+g(d) force ! ASE formatted method and basis

Gaussian input prepared by ASE

0 1
Na                2.8149673280        1.9469942094        1.7399488314
Na                5.6162912493        1.6587209513        2.7826523893
Na                4.9544012607        0.7574851966        0.0000000000
Na                5.0064688802        3.6831991185        0.6543331158
Na                2.2914289236        4.8459356361        1.1673409509
Na                0.0000000000        2.9284658995        1.4134872407
Na                0.5956346266        0.0000000000        1.1840686023


