%mem=12GB
%chk=checkpoint.chk
%nprocshared=16
#P B3LYP/6-311+g(d) force ! ASE formatted method and basis

Gaussian input prepared by ASE

0 1
Na                5.1203257082        0.0214117131        2.9524796612
Na                4.8084973932        2.9991470275        3.1745005884
Na                7.1705237677        1.8362186061        1.7470181820
Na                5.0982572483        0.5674986412        0.0000000000
Na                2.8651505408        2.3329517449        0.9763325315
Na                2.1214913989        0.0000000000        2.7177089799
Na                0.0000000000        1.8412105287        1.6861605074


