%mem=12GB
%chk=checkpoint.chk
%nprocshared=16
#P B3LYP/6-311+g(d) force ! ASE formatted method and basis

Gaussian input prepared by ASE

0 1
Na                4.3420766690        2.2200159267        0.0000000000
Na                6.4595019083        2.8770575951        2.0229134260
Na                6.3833331401        0.1607525478        0.7743659587
Na                5.1755796884        0.5932978161        3.4889602217
Na                2.5389121794        1.2716185194        2.2109587192
Na                0.0364898266        0.0000000000        1.1598776341
Na                0.0000000000        2.8566130228        2.0554524912


