%mem=12GB
%chk=checkpoint.chk
%nprocshared=16
#P B3LYP/6-311+g(d) force ! ASE formatted method and basis

Gaussian input prepared by ASE

0 1
Na                2.6844603420        0.5258942099        2.5846967225
Na                1.0588733269        0.0000000000        0.7023830177
Na                0.0000000000        2.5936933852        0.6679372604
Na                2.2972440763        3.5369706972        2.1791818208
Na                4.5870023363        1.7641492841        1.4187205262
Na                2.4978336819        2.0072943254        0.0000000000
Na                0.4538172445        1.6243437896        3.0578604780


