%mem=12GB
%chk=checkpoint.chk
%nprocshared=16
#P B3LYP/6-311+g(d) force ! ASE formatted method and basis

Gaussian input prepared by ASE

0 1
Na                3.7788324555        0.9970467239        2.7699953765
Na                6.5734654313        0.9913926938        3.8601401834
Na                4.6268071317        1.7890322711        0.0000000000
Na                5.5332871194        3.3835833507        2.3737910048
Na                2.7351721278        3.7438054189        3.3865926186
Na                0.0000000000        2.8450073000        2.5385904257
Na                0.9468859232        0.0000000000        2.6457437687


