%mem=12GB
%chk=checkpoint.chk
%nprocshared=16
#P B3LYP/6-311+g(d) force ! ASE formatted method and basis

Gaussian input prepared by ASE

0 1
Na                2.6736937971        4.0309939529        2.2305470054
Na                2.4435728243        2.4327853225        0.0000000000
Na                6.9339486745        2.0964210433        1.6366949494
Na                4.1599389640        1.3174579614        1.8777152254
Na                0.0000000000        2.7487062461        1.2823123944
Na                1.3976741016        0.0000000000        1.4606455676
Na                1.7143745963        1.8017775139        3.5701911034


