%mem=12GB
%chk=checkpoint.chk
%nprocshared=16
#P B3LYP/6-311+g(d) force ! ASE formatted method and basis

Gaussian input prepared by ASE

0 1
Na                2.3207179240        2.2238454046        3.2386157320
Na                2.3952859898        2.0645066104        0.0000000000
Na                0.0000000000        1.8035025458        1.5765538936
Na                2.1423778717        0.0000000000        1.7029304832
Na                1.3795183307        4.2436458432        1.7500988668
Na                4.4753376874        1.2777393918        1.7952518143
Na                3.9729046901        3.7783104953        1.4949378990


