%mem=12GB
%chk=checkpoint.chk
%nprocshared=16
#P B3LYP/6-311+g(d) force ! ASE formatted method and basis

Gaussian input prepared by ASE

0 1
Na                4.6893666870        1.9340697084        3.6671141710
Na                4.4922765616        4.2334335131        1.7479765511
Na                7.1533787162        3.8522515374        0.4107602859
Na                7.3232842480        0.8695367797        0.1356304726
Na                4.7297644451        0.0000000000        1.3721885237
Na                2.5011399246        1.9926285358        1.6263505754
Na                0.0000000000        2.3003865698        0.0000000000


