%mem=12GB
%chk=checkpoint.chk
%nprocshared=16
#P B3LYP/6-311+g(d) force ! ASE formatted method and basis

Gaussian input prepared by ASE

0 1
Na                2.8390914027        0.9681653867        0.2139345872
Na                5.0925757718        2.6908976328        1.2018880845
Na                5.6720807354        0.0000000000        0.0153236567
Na                4.3364588658        0.2003114749        2.6931703642
Na                1.3312513256        0.1743462234        2.6824952903
Na                0.5993737438        2.6935709502        1.2246906557
Na                0.0000000000        0.0249444522        0.0000000000


