%mem=12GB
%chk=checkpoint.chk
%nprocshared=16
#P B3LYP/6-311+g(d) force ! ASE formatted method and basis

Gaussian input prepared by ASE

0 1
Na                4.2445225965        2.1825787783        0.0000000000
Na                3.0666356192        4.9414370600        0.0543787962
Na                0.0000000000        0.0000000000        1.4284263378
Na                1.3270107603        2.5577974898        0.5871565664
Na                3.3871445365        3.3938221142        2.6032942462
Na                6.1829011764        2.3503380851        2.2834380940
Na                6.4799873772        0.1918523508        0.2213056062


