%mem=12GB
%chk=checkpoint.chk
%nprocshared=16
#P B3LYP/6-311+g(d) force ! ASE formatted method and basis

Gaussian input prepared by ASE

0 1
Na                2.4534362556        1.8223873190        3.2202830200
Na                3.4358121473        3.6440485028        1.0306591740
Na                5.3320125907        1.8255587101        2.4429640448
Na                3.4384960774        0.0000000000        1.0325643814
Na                1.2672458002        1.8225627467        0.0000000000
Na                0.0000000000        3.3009818075        2.2949020421
Na                0.0041660973        0.3427459782        2.2937908887


