%mem=12GB
%chk=checkpoint.chk
%nprocshared=16
#P B3LYP/6-311+g(d) force ! ASE formatted method and basis

Gaussian input prepared by ASE

0 1
Na                2.5262250988        5.4681908060        2.1155003525
Na                0.0000000000        4.4215745769        0.8809883021
Na                0.8882677515        0.0000000000        2.5329203479
Na                1.4610597790        1.8722869006        0.2626153435
Na                4.0784954438        3.1436068972        1.0191859274
Na                6.7304231626        2.1944804922        0.0000000000
Na                6.4418437608        3.0209301454        2.8635028633


