%mem=12GB
%chk=checkpoint.chk
%nprocshared=16
#P B3LYP/6-311+g(d) force ! ASE formatted method and basis

Gaussian input prepared by ASE

0 1
Na                0.0000000000        2.5459253604        1.0773149650
Na                1.5382803426        0.0000000000        0.6698918507
Na                1.3336867939        5.1081138833        0.2662551744
Na                2.9736028356        2.6349102518        0.7122135114
Na                5.9459002441        2.8189003170        1.0684234155
Na                8.8482899230        3.2479207777        1.6951231879
Na               11.0561191869        2.1309912922        0.0000000000


