%mem=12GB
%chk=checkpoint.chk
%nprocshared=16
#P B3LYP/6-311+g(d) force ! ASE formatted method and basis

Gaussian input prepared by ASE

0 1
Na                4.6850928107        4.0868726803        0.0000000000
Na                5.2831420406        4.3545568410        2.9562094593
Na                2.1700760538        0.0000000000        1.5837557067
Na                4.3724303244        1.7039095992        1.8287078328
Na                6.6445252021        2.8873572731        1.2634986656
Na                2.6838730027        3.9570933763        1.9702231334
Na                0.0000000000        4.5225986001        1.4327303964


