%mem=12GB
%chk=checkpoint.chk
%nprocshared=16
#P B3LYP/6-311+g(d) force ! ASE formatted method and basis

Gaussian input prepared by ASE

0 1
Na                0.8654536762        2.2129907420        0.0431423981
Na                1.8543240514        4.2293122561        1.7098650819
Na                0.0000000000        1.9155631969        2.6986385629
Na                2.0313922668        0.0000000000        1.2942691968
Na                3.0570160692        2.0166472649        2.9756305521
Na                3.6673698830        2.3343543112        0.0000000000
Na                5.8078069956        2.0652108233        1.9768590172


