%mem=12GB
%chk=checkpoint.chk
%nprocshared=16
#P B3LYP/6-311+g(d) force ! ASE formatted method and basis

Gaussian input prepared by ASE

0 1
Na                5.9762502907        1.8747990692        0.0000000000
Na                5.1465976108        3.3656707258        2.1416669015
Na                8.5698003395        1.8226614439        1.5408782250
Na                6.2867010426        0.8453017631        2.8808559868
Na                4.2823930918        0.0000000000        1.0897592455
Na                2.6673848616        2.2423698916        0.9446207808
Na                0.0000000000        1.6347819617        1.9300985628


