%mem=12GB
%chk=checkpoint.chk
%nprocshared=16
#P B3LYP/6-311+g(d) force ! ASE formatted method and basis

Gaussian input prepared by ASE

0 1
Na                2.1324622302        0.0000000000        1.7549854389
Na                2.4608305603        2.0770934081        3.8950643093
Na                0.0000000000        1.2868254238        0.0812239756
Na                0.5601124173        4.2300895273        0.1529368155
Na                2.9034648754        4.3800794204        2.0196266770
Na                5.1641282226        3.4466410417        0.2810086853
Na                4.5066325577        0.5350655887        0.0000000000


