%mem=12GB
%chk=checkpoint.chk
%nprocshared=16
#P B3LYP/6-311+g(d) force ! ASE formatted method and basis

Gaussian input prepared by ASE

0 1
Na                2.1629300109        2.0964413317        0.0000000000
Na                2.1077792929        4.6165565651        3.3578037950
Na                0.0000000000        3.4527836053        1.5675098157
Na                0.4146013652        0.4960974855        1.8338654823
Na                2.8850665152        0.0000000000        3.4648939264
Na                4.0149935502        2.5377190469        2.3255288748
Na                6.8593760956        2.3957692324        1.3958111617


