%mem=12GB
%chk=checkpoint.chk
%nprocshared=16
#P B3LYP/6-311+g(d) force ! ASE formatted method and basis

Gaussian input prepared by ASE

0 1
Na                2.7659724199        0.0000000000        0.9945804219
Na                4.9075697656        0.5634509690        3.0146529349
Na                5.2992686570        1.3689295842        0.1584663823
Na                3.3090801815        2.8229610483        1.8575752545
Na                0.3026840416        2.8986243941        1.9230086917
Na                0.4443533161        0.0635310288        2.9061598590
Na                0.0000000000        0.6133571005        0.0000000000


