%mem=12GB
%chk=checkpoint.chk
%nprocshared=16
#P B3LYP/6-311+g(d) force ! ASE formatted method and basis

Gaussian input prepared by ASE

0 1
Na                1.5469567033        0.0000000000        0.5875189522
Na                0.8385365095        0.3562829512        3.4313411281
Na                6.2239708153        1.6435751850        2.2113344909
Na                3.2472914438        1.7750715946        2.3166739671
Na                1.5475883956        3.9425988046        3.5281571592
Na                2.4189715947        3.5116831708        0.0000000000
Na                0.0000000000        2.4354807431        1.4321007079


