%mem=12GB
%chk=checkpoint.chk
%nprocshared=16
#P B3LYP/6-311+g(d) force ! ASE formatted method and basis

Gaussian input prepared by ASE

0 1
Na                4.2077753406        4.3353470293        2.1574686800
Na                0.0415258925        0.0000000000        2.3564011116
Na                0.0000000000        4.2133631228        2.2541956508
Na                2.1639894863        2.1310320503        2.3154887896
Na                3.5093849483        0.7707914368        0.0000000000
Na                5.0850148012        1.4879134641        2.4419348093
Na                3.3793419618        1.1438669905        4.8766204158


