%mem=12GB
%chk=checkpoint.chk
%nprocshared=16
#P B3LYP/6-311+g(d) force ! ASE formatted method and basis

Gaussian input prepared by ASE

0 1
Na                2.7503217358        2.4669358490        0.1158785461
Na                1.5343849791        0.0000000000        0.2818233712
Na                5.2763454172        1.6781660217        1.2540504817
Na                2.7458758752        1.0922767576        2.4974354080
Na                0.0000000000        0.8924772767        2.3845157484
Na                1.2092970627        3.3614275176        2.2186952739
Na                0.0069808436        2.2689884485        0.0000000000


