%mem=12GB
%chk=checkpoint.chk
%nprocshared=16
#P B3LYP/6-311+g(d) force ! ASE formatted method and basis

Gaussian input prepared by ASE

0 1
Na                3.0313119542        0.0000000000        2.0761685198
Na                1.2408200402        1.2098165737        0.0000000000
Na                0.0655796965        0.0958611916        2.5225348584
Na                0.0000000000        3.0503360836        2.0087499541
Na                2.9822652962        2.9804453331        1.6821145993
Na                5.9643132650        3.0013459705        2.0223495068
Na                5.9772292944        0.0462177154        1.4996861911


