%mem=12GB
%chk=checkpoint.chk
%nprocshared=16
#P B3LYP/6-311+g(d) force ! ASE formatted method and basis

Gaussian input prepared by ASE

0 1
Na                2.0362781347        1.9487035719        0.7648973635
Na                4.3092025794        0.0000000000        0.9768035962
Na                5.7763718814        3.6710842675        3.7100603546
Na                4.8609927478        2.9468249444        0.9451612338
Na                2.6768987113        4.7729108486        0.0000000000
Na                0.6427761186        4.2241370676        2.1367109416
Na                0.0000000000        1.3960263577        2.9012659880


