%mem=12GB
%chk=checkpoint.chk
%nprocshared=16
#P B3LYP/6-311+g(d) force ! ASE formatted method and basis

Gaussian input prepared by ASE

0 1
Na                4.0542349108        3.7262131295        2.9039423325
Na                0.0000000000        4.5836901033        1.2370183412
Na                0.3706061941        0.0000000000        1.9275333443
Na                2.0258485863        2.3745015265        1.1422195612
Na                4.5100971048        1.1262358345        0.0000000000
Na                6.0508714666        3.6139699399        0.6658228650
Na                5.9016933997        1.3793815306        2.6450577659


