%mem=12GB
%chk=checkpoint.chk
%nprocshared=16
#P B3LYP/6-311+g(d) force ! ASE formatted method and basis

Gaussian input prepared by ASE

0 1
Na                2.0331617307        1.8066743821        0.0000000000
Na                0.0000000000        2.2025119105        1.6812352837
Na                1.7819907428        3.8563733786        1.6826925521
Na                1.0280264112        0.0000000000        1.6812016600
Na                3.9035237484        2.6758428225        1.6850159002
Na                3.4371405115        0.2952733003        1.6852558583
Na                2.0257845490        1.8065182283        3.3650111427


