%mem=12GB
%chk=checkpoint.chk
%nprocshared=16
#P B3LYP/6-311+g(d) force ! ASE formatted method and basis

Gaussian input prepared by ASE

0 1
Na                4.5123316878        5.0397425282        2.0523054505
Na                5.6057771379        3.1019377272        0.0571990642
Na                3.4027199101        0.0000000000        1.6629971947
Na                2.7495559209        2.8555594188        0.9715011691
Na                0.6821392670        4.8072667928        0.0000000000
Na                0.0000000000        1.9071424176        0.2133552423
Na                0.3861435510        3.5343230919        2.6937411091


