%mem=12GB
%chk=checkpoint.chk
%nprocshared=16
#P B3LYP/6-311+g(d) force ! ASE formatted method and basis

Gaussian input prepared by ASE

0 1
Na                4.3355979568        1.0327169459        3.9046710396
Na                4.2124187541        0.0000000000        0.0000000000
Na                6.4878354151        0.3610241189        1.9241232242
Na                7.5216913128        3.1622328851        1.6538449957
Na                4.8928701475        4.5744608929        1.3665579321
Na                2.9767423605        2.2699503390        1.5289726267
Na                0.0000000000        2.3442597404        1.8355766170


