%mem=12GB
%chk=checkpoint.chk
%nprocshared=16
#P B3LYP/6-311+g(d) force ! ASE formatted method and basis

Gaussian input prepared by ASE

0 1
Na                6.4779061087        4.5359390198        1.5259271984
Na                5.9014750583        0.0000000000        1.2235741090
Na               10.3818420160        1.9012020563        0.9624721174
Na                7.5536837284        2.1861489298        0.0000000000
Na                4.5941139809        2.5439362838        0.3171023773
Na                1.7895595386        3.5829907303        0.5690302819
Na                0.0000000000        1.2214543916        1.0427496254


