%mem=12GB
%chk=checkpoint.chk
%nprocshared=16
#P B3LYP/6-311+g(d) force ! ASE formatted method and basis

Gaussian input prepared by ASE

0 1
Na                2.2367647220        0.0000000000        1.1124710671
Na                9.7294634069        1.1920554400        2.5702877977
Na                9.4264005319        2.7004936989        0.0000000000
Na                7.1966130166        2.6956311625        2.0038174052
Na                4.2668734704        2.1413220174        1.6604843045
Na                2.0325122862        4.1368780082        1.8631525434
Na                0.0000000000        1.9805466471        1.3811919884


