%mem=12GB
%chk=checkpoint.chk
%nprocshared=16
#P B3LYP/6-311+g(d) force ! ASE formatted method and basis

Gaussian input prepared by ASE

0 1
Na                2.1244774627        3.1653443890        0.7713505768
Na                2.6012609494        1.3166653112        3.1205180989
Na                0.0000000000        1.4927920949        1.8349492320
Na                2.2267309459        0.0689069787        0.6326712138
Na                5.0504308694        0.0000000000        1.9182116547
Na                4.5220446498        1.9599978844        0.0000000000
Na                4.7089522490        3.0510949720        2.5407413769


