%mem=12GB
%chk=checkpoint.chk
%nprocshared=16
#P B3LYP/6-311+g(d) force ! ASE formatted method and basis

Gaussian input prepared by ASE

0 1
Na                2.8265073649        3.7630220841        0.1136613841
Na                4.0022888907        4.0287238115        2.8566217124
Na                0.0000000000        0.0000000000        1.0570710208
Na                2.0540501026        1.8222931405        2.2626596413
Na                4.8181241364        1.7429355777        1.0940654497
Na                6.9991370828        0.5417000362        2.7692499353
Na                7.6048219530        1.5220735861        0.0000000000


