%mem=12GB
%chk=checkpoint.chk
%nprocshared=16
#P B3LYP/6-311+g(d) force ! ASE formatted method and basis

Gaussian input prepared by ASE

0 1
Na                2.4067657863        0.3854044091        0.4310106324
Na                6.1646996040        4.7574729581        0.6516177882
Na                0.0000000000        2.1786869383        0.4346161164
Na                1.6694876645        4.2926863688        1.7552572977
Na                4.1529604631        2.6451102527        1.3565169837
Na                4.2474370180        0.0000000000        2.7648294907
Na                5.3694549437        0.2597036975        0.0000000000


