%mem=12GB
%chk=checkpoint.chk
%nprocshared=16
#P B3LYP/6-311+g(d) force ! ASE formatted method and basis

Gaussian input prepared by ASE

0 1
Na                0.0000000000        6.9165044290        1.4842810512
Na                1.0109756906        4.0930433529        1.4212149824
Na                2.8043994525        0.0000000000        2.3975123084
Na                2.0589963472        1.6604720244        0.0133509046
Na                3.6527401242        4.1985173493        0.0000000000
Na                6.5853627637        3.5694746783        0.1137279415
Na                7.9907823170        5.2722646120        2.1464104566


