%mem=12GB
%chk=checkpoint.chk
%nprocshared=16
#P B3LYP/6-311+g(d) force ! ASE formatted method and basis

Gaussian input prepared by ASE

0 1
Na                4.2023107037        2.5296673943        2.8132696273
Na                2.6085073877        0.0050232460        2.5633342089
Na                5.5349599642        0.0000000000        1.9035894832
Na                5.2108915390        2.2962809534        0.0000000000
Na                0.0000000000        0.3185859270        1.1179515913
Na                2.2575513729        2.2133185735        0.5591247694
Na                2.1931306069        4.6884849321        2.2575516174


