%mem=12GB
%chk=checkpoint.chk
%nprocshared=16
#P B3LYP/6-311+g(d) force ! ASE formatted method and basis

Gaussian input prepared by ASE

0 1
Na                2.9226534271        0.3471701314        0.3197149125
Na                4.6031188677        0.0000000000        2.7792645678
Na                0.0000000000        3.9144023971        1.9213652164
Na                2.2029827719        3.2391927046        0.0000000000
Na                4.8896017616        2.4697181649        1.0978170180
Na                7.7718512648        2.6068508533        0.2688147050
Na                6.6474958047        4.6763203780        2.1246177069


