%mem=12GB
%chk=checkpoint.chk
%nprocshared=16
#P B3LYP/6-311+g(d) force ! ASE formatted method and basis

Gaussian input prepared by ASE

0 1
Na                2.9538096593        0.9354682374        1.7323815570
Na                0.0000000000        1.3965792022        1.5077292604
Na                1.9175104224        3.3509971452        0.2900183657
Na                4.0571757005        5.4044975013        0.7523360611
Na                6.6638266674        4.4081205301        1.8513383084
Na                5.8498758849        1.5438555131        2.2395565407
Na                7.1181481064        0.0000000000        0.0000000000


