%mem=12GB
%chk=checkpoint.chk
%nprocshared=16
#P B3LYP/6-311+g(d) force ! ASE formatted method and basis

Gaussian input prepared by ASE

0 1
Na                3.0025274346        1.7412768595        0.0000000000
Na                3.7575296531        0.0000000000        2.3202569626
Na                7.9364860616        3.4316158356        0.5175818530
Na                5.3570212686        2.4604521134        1.7009626840
Na                3.0628655561        4.3759707391        1.4413850120
Na                0.1355988874        4.0711389332        2.0312469230
Na                0.0000000000        1.8617494385        0.0050534645


