%mem=12GB
%chk=checkpoint.chk
%nprocshared=16
#P B3LYP/6-311+g(d) force ! ASE formatted method and basis

Gaussian input prepared by ASE

0 1
Na                1.9586844564        1.8891818354        2.6821718993
Na                3.9233112813        0.0000000000        2.2642420026
Na                0.0000000000        0.5560494714        0.9690814519
Na                2.5168766127        1.6839778565        0.0000000000
Na                5.2324515027        1.2834851033        0.2082937745
Na                4.3714617649        3.0919789203        2.1053553596
Na                1.9401786263        4.3365710381        1.0843022464


