%mem=12GB
%chk=checkpoint.chk
%nprocshared=16
#P B3LYP/6-311+g(d) force ! ASE formatted method and basis

Gaussian input prepared by ASE

0 1
Na                0.7952177991        3.4999375724        0.0000000000
Na                2.0780711296        3.3665846102        3.7379529658
Na                0.0000000000        1.7385805448        2.3012675700
Na                2.2783197734        0.0000000000        1.4075958760
Na                2.3415763857        5.4766073629        1.6321133927
Na                3.4684467654        2.7472390669        1.1497090107
Na                6.4018325372        2.4512964268        1.6800334071


