%mem=12GB
%chk=checkpoint.chk
%nprocshared=16
#P B3LYP/6-311+g(d) force ! ASE formatted method and basis

Gaussian input prepared by ASE

0 1
Na                2.6845539317        2.5706303075        2.8246542400
Na                1.9194342666        0.0000000000        1.4116618559
Na                0.0000000000        2.5896134629        1.4118707138
Na                1.9523528662        5.1528852503        1.4123208249
Na                2.6856385318        2.5736823812        0.0000000000
Na                4.9540339158        3.9924663405        1.4131784638
Na                4.9344850306        1.1254839420        1.4113493836


