%mem=12GB
%chk=checkpoint.chk
%nprocshared=16
#P B3LYP/6-311+g(d) force ! ASE formatted method and basis

Gaussian input prepared by ASE

0 1
Na                2.8750895890        2.5819277040        1.4444841773
Na                0.0000000000        3.4212687802        1.3244892024
Na                2.1045114274        5.0976004179        0.0000000000
Na                4.9503795437        4.6576473632        0.8404312497
Na                5.7636813913        1.7973727823        1.2312635088
Na                3.6319509762        0.0000000000        0.1199752333
Na                0.7557343542        0.5699607696        0.7642653261


