%mem=12GB
%chk=checkpoint.chk
%nprocshared=16
#P B3LYP/6-311+g(d) force ! ASE formatted method and basis

Gaussian input prepared by ASE

0 1
Na                2.0253587166        3.8266477388        1.4880402618
Na                2.7492665414        1.4019081758        3.1025773177
Na                0.0000000000        2.1789540517        0.0000000000
Na                1.9889044857        0.0000000000        0.5603264640
Na                4.6965505762        4.9606292616        0.7513013285
Na                4.2255661180        2.0047566820        0.5705029834
Na                6.9942038697        0.8508396408        0.6324288462


