%mem=12GB
%chk=checkpoint.chk
%nprocshared=16
#P B3LYP/6-311+g(d) force ! ASE formatted method and basis

Gaussian input prepared by ASE

0 1
Na                3.0061940587        2.6026042556        2.9849304168
Na                5.6207035086        2.6041866257        1.5044933093
Na                0.0000000000        2.5987319802        2.9991213285
Na                0.0059165061        2.5977539289        0.0000000000
Na                2.8152408562        5.2037731188        1.4992323083
Na                3.0108285775        2.6003257103        0.0137762791
Na                2.8247559364        0.0000000000        1.5011032187


