%mem=12GB
%chk=checkpoint.chk
%nprocshared=16
#P B3LYP/6-311+g(d) force ! ASE formatted method and basis

Gaussian input prepared by ASE

0 1
Na                2.6241089125        2.2239470015        0.0000000000
Na                5.2407960534        2.7093755490        1.4466869249
Na                2.6133784776        4.8923171636        1.4474499034
Na                2.6223026242        2.2201707382        2.8963010524
Na                4.0986153233        0.0132348110        1.4465203060
Na                1.1664213625        0.0000000000        1.4453310856
Na                0.0000000000        2.6901365526        1.4463458264


