%mem=12GB
%chk=checkpoint.chk
%nprocshared=16
#P B3LYP/6-311+g(d) force ! ASE formatted method and basis

Gaussian input prepared by ASE

0 1
Na                2.7360129747        2.0257136827        2.9963433456
Na                1.5482506452        4.2927075357        1.9898386417
Na                0.0000000000        1.7987409689        2.9415357067
Na                1.9136537662        0.0000000000        1.3224270775
Na                5.4268868976        2.1306966295        1.9925515365
Na                3.2700165215        2.5153687451        0.1295469596
Na                0.5221113747        2.3013285954        0.0000000000


