%mem=12GB
%chk=checkpoint.chk
%nprocshared=16
#P B3LYP/6-311+g(d) force ! ASE formatted method and basis

Gaussian input prepared by ASE

0 1
Na                4.1869016835        0.0000000000        1.2521258610
Na                4.6081354887        3.4794383430        1.8097482366
Na                5.9334113037        1.2958705871        3.0834993374
Na                5.9065801552        1.8001943844        0.0000000000
Na                2.5252451618        2.1329884197        0.4682503745
Na                0.0000000000        2.9048372766        1.8321378078
Na                0.6615121697        0.0804293224        1.5751147195


