%mem=12GB
%chk=checkpoint.chk
%nprocshared=16
#P B3LYP/6-311+g(d) force ! ASE formatted method and basis

Gaussian input prepared by ASE

0 1
Na                2.7738703277        1.2492724355        0.0000000000
Na                3.0660770497        1.9634250775        2.8983345657
Na                5.4725451942        1.1682004056        1.2996101094
Na                4.1353483475        3.8010331432        0.7929734909
Na                1.4752491933        4.3741272499        2.0618602743
Na                0.0000000000        2.3328581404        0.4157663086
Na                0.9660021127        0.0000000000        2.0339765450


