%mem=12GB
%chk=checkpoint.chk
%nprocshared=16
#P B3LYP/6-311+g(d) force ! ASE formatted method and basis

Gaussian input prepared by ASE

0 1
Na                6.1350778016        2.4934449640        0.1353539840
Na                4.9858976793        5.2616716606        0.0000000000
Na                5.3543872960        3.9186472108        2.6562686238
Na                5.9191690445        0.9716467508        2.7089609927
Na                4.4713375670        0.0000000000        0.2677644490
Na                1.7456204260        1.2073832397        0.6316505173
Na                0.0000000000        3.3643435615        1.7685549144


