%mem=12GB
%chk=checkpoint.chk
%nprocshared=16
#P B3LYP/6-311+g(d) force ! ASE formatted method and basis

Gaussian input prepared by ASE

0 1
Na                4.6780947945        3.0453374490        2.5451921745
Na                4.1881330770        2.1319928170        0.0000000000
Na                2.5557329734        1.4554239642        3.3182224827
Na                0.0000000000        1.3774825284        1.9843514095
Na                1.9301578781        3.2992147798        1.0453227173
Na                2.2207527826        0.2561071740        0.5315878388
Na                4.9037135135        0.0000000000        2.0136645190


