%mem=12GB
%chk=checkpoint.chk
%nprocshared=16
#P B3LYP/6-311+g(d) force ! ASE formatted method and basis

Gaussian input prepared by ASE

0 1
Na                4.6659338478        2.6689845890        0.0000000000
Na                4.7464420267        0.0000000000        3.0531007697
Na                0.0000000000        1.1021264195        2.2463061822
Na                2.7973491797        2.1550571930        2.2953604782
Na                4.6520330190        3.9569718110        3.8190270706
Na                6.5801683760        2.2467046605        2.2754728086
Na                9.3449268881        1.1029165326        2.2455604338


