%mem=12GB
%chk=checkpoint.chk
%nprocshared=16
#P B3LYP/6-311+g(d) force ! ASE formatted method and basis

Gaussian input prepared by ASE

0 1
Na                4.4565584316        1.7219615309        3.6971483651
Na                5.9224293425        0.0632489946        1.6720836863
Na                5.6796679709        4.0392834627        2.2348237939
Na                4.7477019845        2.2628116529        0.0000000000
Na                0.7401386685        4.5145290390        1.8315990328
Na                2.2619830554        1.9429191978        1.6571478411
Na                0.0000000000        0.0000000000        1.8956550339


