%mem=12GB
%chk=checkpoint.chk
%nprocshared=16
#P B3LYP/6-311+g(d) force ! ASE formatted method and basis

Gaussian input prepared by ASE

0 1
Na                2.4854949954        0.0000000000        1.6086649336
Na                2.4890776937        2.0662501807        3.2164847508
Na                4.1198585307        3.5588407712        1.6081837828
Na                4.9726553707        1.0069208677        1.6067715862
Na                2.4877378746        2.0658108013        0.0000000000
Na                0.0000000000        1.0122615222        1.6080916510
Na                0.8599047223        3.5593516572        1.6074919980


