%mem=12GB
%chk=checkpoint.chk
%nprocshared=16
#P B3LYP/6-311+g(d) force ! ASE formatted method and basis

Gaussian input prepared by ASE

0 1
Na                2.3039082422        1.1412745537        3.1369621724
Na                2.8020284752        0.1584656257        0.5159378926
Na                5.0151672279        1.4031330623        2.0107505441
Na                2.9839186746        3.2548007276        0.9373669535
Na                0.6520055907        1.9257536321        0.0000000000
Na                0.3108832970        3.0813708855        2.5591495007
Na                0.0000000000        0.0000000000        1.9607968680


