%mem=12GB
%chk=checkpoint.chk
%nprocshared=16
#P B3LYP/6-311+g(d) force ! ASE formatted method and basis

Gaussian input prepared by ASE

0 1
Na                2.0365068411        1.9795592479        0.0000000000
Na                3.0080016115        0.0000000000        1.6426453263
Na                0.0000000000        0.5852063589        1.6514452025
Na                2.0437565291        1.9823410599        3.2934251424
Na                0.2453477345        3.6689047084        1.6493517414
Na                2.9961942140        3.9506959186        1.6412434728
Na                4.8628885576        2.0748057475        1.6509232266


