%mem=12GB
%chk=checkpoint.chk
%nprocshared=16
#P B3LYP/6-311+g(d) force ! ASE formatted method and basis

Gaussian input prepared by ASE

0 1
Na                2.4894336650        1.9255694515        0.0000000000
Na                3.7657230517        0.0000000000        1.9275900975
Na                5.4587163449        1.9344862730        0.3865880065
Na                3.7544773785        3.8548574011        1.9306303821
Na                1.6373501250        1.9205784887        2.8447629998
Na                0.0147810457        3.4242762933        0.8116673700
Na                0.0000000000        0.4416902344        0.8024860519


