%mem=12GB
%chk=checkpoint.chk
%nprocshared=16
#P B3LYP/6-311+g(d) force ! ASE formatted method and basis

Gaussian input prepared by ASE

0 1
Na                2.1341439981        2.4507277095        0.0000000000
Na                0.0461520462        4.1312409277        1.4298739883
Na                0.0000000000        0.8293351273        1.4301471075
Na                2.1344267839        2.4537760383        2.8588106560
Na                3.1969207000        0.0000000000        1.4320536767
Na                4.8016945662        2.4168890754        1.4288658176
Na                3.2651937623        4.8765901244        1.4304491273


