%mem=12GB
%chk=checkpoint.chk
%nprocshared=16
#P B3LYP/6-311+g(d) force ! ASE formatted method and basis

Gaussian input prepared by ASE

0 1
Na                1.2382627528        3.8352965092        2.8552612892
Na                6.6694319913        4.1241988114        0.5871847037
Na                7.9060668594        0.0118921449        3.0909988389
Na                5.8621836643        1.3351852274        1.3393913605
Na                2.9712565621        1.4951215560        2.1351825180
Na                0.0000000000        1.1523228686        2.3389359816
Na                1.4804798571        0.0000000000        0.0000000000


