%mem=12GB
%chk=checkpoint.chk
%nprocshared=16
#P B3LYP/6-311+g(d) force ! ASE formatted method and basis

Gaussian input prepared by ASE

0 1
Na                5.0781283203        2.2816626348        0.0000000000
Na                5.6501461463        0.0000000000        1.4950142034
Na                6.8557867441        2.8125700542        2.1043256185
Na                4.0487454403        4.0997935708        1.8766133587
Na                4.4300777694        1.4909106752        3.5274174273
Na                2.7908024497        1.3117297608        1.2652701305
Na                0.0000000000        2.0096972237        1.7716739887


