%mem=12GB
%chk=checkpoint.chk
%nprocshared=16
#P B3LYP/6-311+g(d) force ! ASE formatted method and basis

Gaussian input prepared by ASE

0 1
Na                5.2742002741        3.4867139804        2.5596365283
Na                3.4189974676        0.0000000000        0.8472913587
Na                7.9252633317        3.3424563126        1.1686391483
Na                5.5459742613        1.9405376753        0.0000000000
Na                3.2373559396        1.4724168862        3.4575330970
Na                2.8579125345        2.9452829317        0.8715854448
Na                0.0000000000        3.8609030229        0.8406441526


