%mem=12GB
%chk=checkpoint.chk
%nprocshared=16
#P B3LYP/6-311+g(d) force ! ASE formatted method and basis

Gaussian input prepared by ASE

0 1
Na                2.7166507405        0.0000000000        3.0435051452
Na                3.4382306743        0.1025108969        0.1300942738
Na                6.0871508829        1.1944675628        1.0124187997
Na                4.4980632575        2.4091002178        3.2448893963
Na                2.8865246009        4.3613928612        1.6368602564
Na                1.4199209688        2.3228643014        0.0000000000
Na                0.0000000000        1.0334120401        2.3066023437


