%mem=12GB
%chk=checkpoint.chk
%nprocshared=16
#P B3LYP/6-311+g(d) force ! ASE formatted method and basis

Gaussian input prepared by ASE

0 1
Na                2.3171051884        0.0000000000        1.5759650241
Na                4.3639608402        5.2760948944        1.9066134315
Na                7.0027817286        0.8217975349        1.0292916861
Na                4.7867857541        0.8533384160        3.0501844326
Na                2.6522468087        2.8605683060        2.4027202059
Na                0.0000000000        1.4970428130        2.7486426581
Na                0.9854224061        2.1787308360        0.0000000000


