%mem=12GB
%chk=checkpoint.chk
%nprocshared=16
#P B3LYP/6-311+g(d) force ! ASE formatted method and basis

Gaussian input prepared by ASE

0 1
Na                2.4407548102        1.6559682235        3.2605417457
Na                2.8694458026        3.0690776422        0.6706008682
Na                5.0152888917        1.6514062715        1.9686314211
Na                2.8332347159        0.0000000000        1.0746815882
Na                0.5908523451        1.6469490924        0.0000000000
Na                0.0000000000        0.2292314678        2.3059786051
Na                0.3580711467        3.3014830117        2.4720409631


