%mem=12GB
%chk=checkpoint.chk
%nprocshared=16
#P B3LYP/6-311+g(d) force ! ASE formatted method and basis

Gaussian input prepared by ASE

0 1
Na                4.8894894672        2.1313853560        2.9006081005
Na                4.4762503711        2.7658483552        0.0000000000
Na                6.8359299624        3.9069954637        1.4681629594
Na                7.6527392038        1.1371131464        2.2969181287
Na                5.2902223435        0.0000000000        0.8344341270
Na                2.5266890236        0.9998207305        1.4397268382
Na                0.0000000000        2.4832096378        2.0776841850


