%mem=12GB
%chk=checkpoint.chk
%nprocshared=16
#P B3LYP/6-311+g(d) force ! ASE formatted method and basis

Gaussian input prepared by ASE

0 1
Na                2.3779652699        0.0000000000        1.9400992814
Na                2.3794117396        2.1963297694        3.3854223503
Na                0.9958852515        3.6020315528        1.6056908553
Na                3.7618649334        3.6023334985        1.6069845467
Na                0.0000000000        1.1460354690        1.7811982911
Na                4.7560704208        1.1444898153        1.7799323194
Na                2.3785209038        1.6653937100        0.0000000000


