%mem=12GB
%chk=checkpoint.chk
%nprocshared=16
#P B3LYP/6-311+g(d) force ! ASE formatted method and basis

Gaussian input prepared by ASE

0 1
Na                2.4515953078        2.4584434028        2.8327904143
Na                2.4464854335        2.5128325495        0.0339520716
Na                0.0000000000        1.9468282351        1.4274905401
Na                2.1137092968        0.0000000000        1.3872034880
Na                4.4954934761        0.8056507226        0.0000000000
Na                4.5015381749        0.7470640162        2.8009084653
Na                4.8369172877        3.2633027586        1.4479357685


