%mem=12GB
%chk=checkpoint.chk
%nprocshared=16
#P B3LYP/6-311+g(d) force ! ASE formatted method and basis

Gaussian input prepared by ASE

0 1
Na                5.0019444998        2.4436576601        0.1060888609
Na                2.2319203951        2.0750935445        0.0000000000
Na                0.0000000000        2.2907247224        1.8462281719
Na                2.6626155767        2.5028843830        2.9944109820
Na                3.6636715691        4.5034156872        1.3582358066
Na                5.4302548833        2.3491596749        2.8437679048
Na                3.8627567367        0.0000000000        1.5820209223


