%mem=12GB
%chk=checkpoint.chk
%nprocshared=16
#P B3LYP/6-311+g(d) force ! ASE formatted method and basis

Gaussian input prepared by ASE

0 1
Na                2.0031938565        3.8677137168        1.2780940611
Na                1.2080407455        0.0000000000        1.1399534192
Na                0.0000000000        2.3157335194        2.0181213940
Na                2.6793804939        1.7089730665        0.0000000000
Na                2.7346828731        2.3142807813        3.2981749122
Na                4.7691892407        2.7458662484        1.2911212132
Na                3.8478041680        0.1107983833        2.2511171656


