%mem=12GB
%chk=checkpoint.chk
%nprocshared=16
#P B3LYP/6-311+g(d) force ! ASE formatted method and basis

Gaussian input prepared by ASE

0 1
Na                2.7798889249        3.3966377194        1.0315267467
Na                2.7673192058        0.5762276998        0.0000000000
Na                0.0000000000        3.9205499161        2.0224557320
Na                1.2818504407        1.2572749021        2.5066895547
Na                4.0008150771        0.0000000000        2.6739315203
Na                5.1972759928        2.7579498778        2.7022706984
Na                7.9112917989        3.0596697919        1.4646711809


