%mem=12GB
%chk=checkpoint.chk
%nprocshared=16
#P B3LYP/6-311+g(d) force ! ASE formatted method and basis

Gaussian input prepared by ASE

0 1
Na                4.8516455487        1.6493213585        2.2828538004
Na                7.7458489151        1.9658375649        1.5686324286
Na                5.6458197697        3.4211961005        0.0000000000
Na                3.7698150079        4.4453707935        2.1058183752
Na                0.7949923800        4.3283429630        1.7253879556
Na                0.0000000000        1.5756323567        0.8387910317
Na                2.4543508449        0.0000000000        1.5441292629


