%mem=12GB
%chk=checkpoint.chk
%nprocshared=16
#P B3LYP/6-311+g(d) force ! ASE formatted method and basis

Gaussian input prepared by ASE

0 1
Na                3.0635719796        0.8335709107        2.4222050840
Na                2.4760444134        2.5186826586        0.0000000000
Na                6.0340538589        0.9025721361        2.0529582462
Na                4.4573844341        3.4481909196        2.0460692547
Na                2.0502593582        3.2917096817        3.8218524473
Na                0.0000000000        2.9382607530        1.6515548544
Na                0.1836208993        0.0000000000        2.2537558067


