%mem=12GB
%chk=checkpoint.chk
%nprocshared=16
#P B3LYP/6-311+g(d) force ! ASE formatted method and basis

Gaussian input prepared by ASE

0 1
Na                0.0000000000        1.8187273607        0.2304816671
Na                2.9968034500        1.7725524402        0.0802794276
Na                3.0504226406        6.5330123653        1.9744115827
Na                4.1273882550        4.5508485859        0.0000000000
Na                4.0010861304        0.0000000000        2.2820348268
Na                5.6270124214        2.3605947828        1.3972981753
Na                8.3567186476        2.5898569553        0.1701144704


