%mem=12GB
%chk=checkpoint.chk
%nprocshared=16
#P B3LYP/6-311+g(d) force ! ASE formatted method and basis

Gaussian input prepared by ASE

0 1
Na                2.6020605122        2.6813774505        0.0000000000
Na                5.1939682076        2.0278927808        1.4296796774
Na                4.2655369830        4.7735230160        1.4294134033
Na                2.5864477651        0.0000000000        1.4298257025
Na                2.6016721544        2.6785883427        2.8586449282
Na                0.9611722474        4.7913231873        1.4315452299
Na                0.0000000000        2.0535146654        1.4281187593


