%mem=12GB
%chk=checkpoint.chk
%nprocshared=16
#P B3LYP/6-311+g(d) force ! ASE formatted method and basis

Gaussian input prepared by ASE

0 1
Na                3.5076392354        4.6781722213        2.7736785373
Na                3.1013598102        3.6095844531        0.0000000000
Na                7.4640983813        1.9707621811        1.3957940467
Na                4.5374941738        1.9562275599        2.0522427059
Na                0.9292172942        5.1941403119        1.3325019318
Na                1.5832148929        2.4290703622        2.3007341483
Na                0.0000000000        0.0000000000        1.5251102517


