%mem=12GB
%chk=checkpoint.chk
%nprocshared=16
#P B3LYP/6-311+g(d) force ! ASE formatted method and basis

Gaussian input prepared by ASE

0 1
Na                2.9492375266        1.8758963808        2.8024564998
Na                3.6180554523        3.8646736668        0.6547357575
Na                0.0000000000        2.3711972328        3.0483550646
Na                0.9998426704        0.0000000000        1.5122605048
Na                3.4192785863        0.9413906854        0.0000000000
Na                5.3703753742        0.2173393370        2.1628068963
Na                7.8416532687        1.8578629859        2.6073395066


