%mem=12GB
%chk=checkpoint.chk
%nprocshared=16
#P B3LYP/6-311+g(d) force ! ASE formatted method and basis

Gaussian input prepared by ASE

0 1
Na                2.6780599201        1.9238987861        0.0000000000
Na                2.3442509553        3.9695895992        1.7419065271
Na                5.0022387103        2.7667969900        1.4765490120
Na                4.0422115398        0.0000000000        1.6402201955
Na                1.1450608075        0.0272418443        1.1690467545
Na                2.1531805950        1.4780966787        3.2401300585
Na                0.0000000000        2.5371721047        1.3802276293


