%mem=12GB
%chk=checkpoint.chk
%nprocshared=16
#P B3LYP/6-311+g(d) force ! ASE formatted method and basis

Gaussian input prepared by ASE

0 1
Na                2.8266205173        0.3761050858        2.5646642388
Na                5.1150763219        2.3497951975        0.0000000000
Na                5.6879077254        0.0000000000        1.7678281886
Na                4.8145871452        2.5897287313        2.9799490031
Na                2.5346900069        4.4510560425        2.3799695418
Na                2.1254883550        2.2773130655        0.3461017626
Na                0.0000000000        0.5819201048        1.6016853512


