%mem=12GB
%chk=checkpoint.chk
%nprocshared=16
#P B3LYP/6-311+g(d) force ! ASE formatted method and basis

Gaussian input prepared by ASE

0 1
Na                4.5998107914        0.0000000000        2.5415920497
Na                5.0254245788        2.8715713531        3.2678656839
Na                5.6540606256        4.8286311063        1.0842130790
Na                5.8173654902        1.8827531738        0.5463815343
Na                3.1481723308        0.6197931136        0.0000000000
Na                2.2686637084        1.8870020656        2.5767144163
Na                0.0000000000        3.4653313238        1.4066083493


