%mem=12GB
%chk=checkpoint.chk
%nprocshared=16
#P B3LYP/6-311+g(d) force ! ASE formatted method and basis

Gaussian input prepared by ASE

0 1
Na                3.1517725714        0.0000000000        1.9621011025
Na                1.4708542499        1.4685570652        3.6738004145
Na                5.7858009731        1.2649816680        1.7960785806
Na                3.4895466332        3.0786940251        1.9084354274
Na                0.3928903719        3.1833833709        1.7288855005
Na                1.6846689590        1.3811181516        0.0000000000
Na                0.0000000000        0.0515630743        1.7771041992


