%mem=12GB
%chk=checkpoint.chk
%nprocshared=16
#P B3LYP/6-311+g(d) force ! ASE formatted method and basis

Gaussian input prepared by ASE

0 1
Na                2.6784271577        2.1093865772        0.1622989938
Na                3.6354674475        0.0000000000        2.0303609651
Na                0.0000000000        2.0986932917        1.1962952504
Na                2.2874462627        2.6569241980        2.8355232244
Na                5.2049716559        2.0906089906        2.9170105284
Na                4.4732438190        4.1925464568        1.2854330867
Na                5.3751672245        1.5369424461        0.0000000000


