%mem=12GB
%chk=checkpoint.chk
%nprocshared=16
#P B3LYP/6-311+g(d) force ! ASE formatted method and basis

Gaussian input prepared by ASE

0 1
Na                2.7767584945        2.3467975623        0.0002218848
Na                0.3986125244        2.1717946390        2.7859440744
Na                5.5259820805        2.3318835749        0.9986638415
Na                3.1956419269        2.5154475160        2.7580951828
Na                1.4397709532        4.5370223883        1.1369602601
Na                1.9919661422        0.0000000000        1.3293529573
Na                0.0000000000        2.0065363591        0.0000000000


