%mem=12GB
%chk=checkpoint.chk
%nprocshared=16
#P B3LYP/6-311+g(d) force ! ASE formatted method and basis

Gaussian input prepared by ASE

0 1
Na                2.8706942986        2.2344727169        0.0000000000
Na                2.1375239453        0.0000000000        1.8782164583
Na                5.7842244949        2.1325991801        0.6811855436
Na                3.8578696055        3.3543202231        2.6131860030
Na                0.9809969084        2.5387444172        3.0068054225
Na                0.0000000000        1.4345304684        0.3896183132
Na                0.7630375263        4.3010828458        0.5806228370


