%mem=12GB
%chk=checkpoint.chk
%nprocshared=16
#P B3LYP/6-311+g(d) force ! ASE formatted method and basis

Gaussian input prepared by ASE

0 1
Na                1.7592922312        1.5192715226        2.3745387486
Na                2.8174229332        0.0000000000        0.0185820241
Na                0.0000000000        1.0262978539        0.0000000000
Na                0.5478859375        3.8338317834        0.8973252816
Na                3.3103326606        4.6885258033        0.0849174255
Na                4.4673497547        2.1770645096        1.2604350076
Na                7.3820988961        1.8645574289        0.6244123258


