%mem=12GB
%chk=checkpoint.chk
%nprocshared=16
#P B3LYP/6-311+g(d) force ! ASE formatted method and basis

Gaussian input prepared by ASE

0 1
Na                2.2813906722        1.5191327414        3.0975420469
Na                2.6974823766        0.0000000000        0.7494048248
Na                5.0018731249        1.3741379216        1.9699158557
Na                2.9140018457        3.1222403641        0.8358750154
Na                0.1307242918        3.1594689328        2.2721210260
Na                0.3867592132        1.4734840077        0.0000000000
Na                0.0000000000        0.0090325607        2.3871807002


