%mem=12GB
%chk=checkpoint.chk
%nprocshared=16
#P B3LYP/6-311+g(d) force ! ASE formatted method and basis

Gaussian input prepared by ASE

0 1
Na                2.5962508240        2.2605444369        2.9749139446
Na                0.2416362736        4.0203273788        2.3450532188
Na                0.6616639034        0.0000000000        2.5606196676
Na                0.0000000000        1.8468127986        0.2857791178
Na                2.9758102326        2.1193093891        0.0000000000
Na                5.0988339848        3.3267382126        1.7274060597
Na                7.4122446126        1.4270841435        1.7113270154


