%mem=12GB
%chk=checkpoint.chk
%nprocshared=16
#P B3LYP/6-311+g(d) force ! ASE formatted method and basis

Gaussian input prepared by ASE

0 1
Na                0.0000000000        1.3705518570        1.6235533722
Na                2.5881286035        0.0000000000        0.9711625543
Na                5.4109235779        0.2843340030        0.0000000000
Na                7.4644380975        1.9241158557        1.4454833046
Na                6.1389218648        4.6168200256        1.4251147482
Na                3.3694929391        5.0055454052        0.3418794172
Na                0.5075418958        4.1685462302        0.6596000547


