%mem=12GB
%chk=checkpoint.chk
%nprocshared=16
#P B3LYP/6-311+g(d) force ! ASE formatted method and basis

Gaussian input prepared by ASE

0 1
Na                2.9180939956        0.3146678434        1.4507952526
Na                1.4840786441        4.2662362510        0.0853147113
Na                5.8806696129        0.7653158150        1.3679390128
Na                4.0407296394        2.6939289398        0.0000000000
Na                3.3073557263        4.2706395524        2.4521895916
Na                0.9599776812        2.3968072967        2.3756855625
Na                0.0000000000        0.0000000000        0.8512003893


