%mem=12GB
%chk=checkpoint.chk
%nprocshared=16
#P B3LYP/6-311+g(d) force ! ASE formatted method and basis

Gaussian input prepared by ASE

0 1
Na                4.0564636327        1.7805912915        4.4186004935
Na                3.9258122464        0.0000000000        0.0000000000
Na                7.9761578394        3.1654095180        1.4425025694
Na                5.7673034137        1.2217564432        2.0232142394
Na                3.3315315800        5.2411398877        1.0438654727
Na                2.9997799178        2.3221432272        1.6639460023
Na                0.0000000000        2.2224281051        1.7744632379


