%mem=12GB
%chk=checkpoint.chk
%nprocshared=16
#P B3LYP/6-311+g(d) force ! ASE formatted method and basis

Gaussian input prepared by ASE

0 1
Na                2.3550401254        1.9093482662        3.3684403928
Na                1.5963502458        1.7242687792        0.0000000000
Na                6.9113653893        2.0994377807        1.9146636047
Na                4.2231721044        1.3139694811        1.2064213172
Na                0.0000000000        3.1160455728        2.0577634441
Na                2.6920103733        3.7297626901        1.4183043508
Na                1.0405082121        0.0000000000        1.9951980740


