%mem=12GB
%chk=checkpoint.chk
%nprocshared=16
#P B3LYP/6-311+g(d) force ! ASE formatted method and basis

Gaussian input prepared by ASE

0 1
Na                2.4060816617        2.7001865028        2.7591409867
Na                5.1603978676        2.3322610246        2.7411029892
Na                0.0000000000        2.4949884527        1.1500614583
Na                2.6596950590        2.4208981130        0.0000000000
Na                4.4247210560        4.5267903602        1.2185333367
Na                5.3797591671        1.8033671843        0.0222167692
Na                3.4922902156        0.0000000000        1.6848095945


