%mem=12GB
%chk=checkpoint.chk
%nprocshared=16
#P B3LYP/6-311+g(d) force ! ASE formatted method and basis

Gaussian input prepared by ASE

0 1
Na                2.6862798542        2.2037325251        2.7266446441
Na                4.8456816947        4.2676409208        2.3960078643
Na                4.7032102197        0.0000000000        2.3881576219
Na                4.4473177572        2.1500426134        0.3087685815
Na                1.4810688665        2.4973811269        0.0000000000
Na                0.0000000000        3.5028343206        2.4044249256
Na                0.2932025006        0.5579838537        1.9554674160


