%mem=12GB
%chk=checkpoint.chk
%nprocshared=16
#P B3LYP/6-311+g(d) force ! ASE formatted method and basis

Gaussian input prepared by ASE

0 1
Na                2.6911563937        2.5360313473        0.0000000000
Na                2.9405685913        0.0000000000        1.5921412972
Na                5.3936572374        1.5109225443        0.7938891209
Na                4.2706892517        1.8456313398        3.5543378445
Na                2.5430852075        4.0944867216        2.5593193701
Na                0.0425067286        2.9815960579        1.3361556461
Na                0.0000000000        0.1045105135        2.1854215997


