%mem=12GB
%chk=checkpoint.chk
%nprocshared=16
#P B3LYP/6-311+g(d) force ! ASE formatted method and basis

Gaussian input prepared by ASE

0 1
Na                2.9979385817        2.0962905823        0.0000000000
Na                0.0000000000        2.5151960026        0.3440407054
Na                2.1336528171        3.7494217296        1.8737608735
Na                1.3968679862        0.0000000000        0.0615526025
Na                1.4860826831        1.0583026064        2.5029709487
Na                4.2916996685        0.7528049881        2.1447621609
Na                5.8094299807        2.2463757022        0.2851934738


