%mem=12GB
%chk=checkpoint.chk
%nprocshared=16
#P B3LYP/6-311+g(d) force ! ASE formatted method and basis

Gaussian input prepared by ASE

0 1
Na                6.6458574069        1.4491843409        0.9527104670
Na                4.9393259040        2.1099733428        2.9944961479
Na                0.0000000000        0.7507250730        1.1352923250
Na                2.5941117045        1.9938680065        1.5728388724
Na                4.3207438996        0.0000000000        0.7911414971
Na                4.5981588704        3.0035421038        0.0000000000
Na                2.7270056573        4.8824908369        1.1933833431


