%mem=12GB
%chk=checkpoint.chk
%nprocshared=16
#P B3LYP/6-311+g(d) force ! ASE formatted method and basis

Gaussian input prepared by ASE

0 1
Na                6.5005912026        3.6802916887        2.1985936310
Na                5.0640457712        0.0000000000        3.4589384624
Na                7.8022266632        1.0485883357        2.8207600052
Na                7.0285676053        0.3693406965        0.0000000000
Na                4.5513712012        1.7103336502        1.0433698016
Na                1.9282714323        2.8442255006        1.9365527392
Na                0.0000000000        0.5613701519        1.8070595319


