%mem=12GB
%chk=checkpoint.chk
%nprocshared=16
#P B3LYP/6-311+g(d) force ! ASE formatted method and basis

Gaussian input prepared by ASE

0 1
Na                2.0108288379        2.2465527400        3.5905760696
Na                0.9271625349        4.2499118150        1.6373320772
Na                0.0000000000        1.9123149149        0.0000000000
Na                2.1428239166        0.2793321349        1.3270907421
Na                5.1275774011        0.0000000000        1.4287758740
Na                6.9399679187        2.0736171129        2.6118053751
Na                8.5028154334        3.3045625606        0.3706171883


