%mem=12GB
%chk=checkpoint.chk
%nprocshared=16
#P B3LYP/6-311+g(d) force ! ASE formatted method and basis

Gaussian input prepared by ASE

0 1
Na                2.6316784810        3.3589026860        2.3033333029
Na                4.4975913739        2.8524447062        0.0000000000
Na                7.2818412158        3.1456136349        1.0693335935
Na                5.1655879918        1.8016664429        2.7152315594
Na                3.8628248725        0.0000000000        0.6951602905
Na                1.1146389868        0.8874566455        1.5206311061
Na                0.0000000000        3.5965918303        0.8915119785


