%mem=12GB
%chk=checkpoint.chk
%nprocshared=16
#P B3LYP/6-311+g(d) force ! ASE formatted method and basis

Gaussian input prepared by ASE

0 1
Na                2.9200049061        1.7131920643        0.0000000000
Na                3.9675170759        2.7831361328        2.5961563636
Na                5.8374016014        2.3541291598        0.2883623220
Na                4.6707408002        0.0000000000        1.7315623427
Na                1.8672967233        0.6386158825        2.5957157564
Na                1.1681081874        3.4239662221        1.7337055089
Na                0.0000000000        1.0712087230        0.2857185021


