%mem=12GB
%chk=checkpoint.chk
%nprocshared=16
#P B3LYP/6-311+g(d) force ! ASE formatted method and basis

Gaussian input prepared by ASE

0 1
Na                2.9727080740        3.6508515183        1.9107597971
Na                1.4887460137        1.8708233005        0.0000000000
Na                0.0000000000        3.3095657794        2.1422791955
Na                0.0291240614        0.3116036538        2.0755066539
Na                3.2913122251        1.7549697385        4.2247976661
Na                2.9980613601        0.0000000000        1.8011382202
Na                5.1895085190        1.8700567999        0.9225825254


