%mem=12GB
%chk=checkpoint.chk
%nprocshared=16
#P B3LYP/6-311+g(d) force ! ASE formatted method and basis

Gaussian input prepared by ASE

0 1
Na                4.7474966817        2.0812970648        0.0000000000
Na                5.8474435430        4.8553754565        0.3599963031
Na                6.5726001528        0.0000000000        1.1352883741
Na                5.0672115585        1.8134147923        2.9735752400
Na                3.9554327875        4.5894809673        2.6760409778
Na                2.1024359650        3.3410800613        0.6668251496
Na                0.0000000000        1.2913389973        1.2489449553


