%mem=12GB
%chk=checkpoint.chk
%nprocshared=16
#P B3LYP/6-311+g(d) force ! ASE formatted method and basis

Gaussian input prepared by ASE

0 1
Na                5.6533609706        0.8788770603        0.2058584263
Na                8.3966968594        1.9057987952        0.8367829385
Na                6.2394118956        3.8135314846        0.0000000000
Na                3.5143643989        5.0305815996        0.3216870950
Na                0.7085542281        4.0122338130        0.6155185415
Na                0.0000000000        1.1015691320        0.4579300693
Na                2.7839706639        0.0000000000        0.2246471981


