%mem=12GB
%chk=checkpoint.chk
%nprocshared=16
#P B3LYP/6-311+g(d) force ! ASE formatted method and basis

Gaussian input prepared by ASE

0 1
Na                2.7812330938        1.8784314303        0.0000000000
Na                2.7816638744        1.8778650411        3.4092174793
Na                4.7527381664        0.4236026140        1.7040567168
Na                4.8131699592        3.2216301595        1.7039922273
Na                2.1206561455        3.9499293368        1.7052721550
Na                1.6833789232        0.0000000000        1.7047482174
Na                0.0000000000        2.0859014236        1.7037857002


