%mem=12GB
%chk=checkpoint.chk
%nprocshared=16
#P B3LYP/6-311+g(d) force ! ASE formatted method and basis

Gaussian input prepared by ASE

0 1
Na                2.3713968574        1.7729247078        2.7767105022
Na                3.2305693769        4.5188723394        1.9330903062
Na                0.0000000000        0.6996472783        1.2856658812
Na                1.7881343572        2.7373633170        0.0000000000
Na                4.6102769727        2.1066527216        0.8064326614
Na                7.4740254118        2.8844508792        1.2692975469
Na                6.6655825219        0.0000000000        1.4006874653


