%mem=12GB
%chk=checkpoint.chk
%nprocshared=16
#P B3LYP/6-311+g(d) force ! ASE formatted method and basis

Gaussian input prepared by ASE

0 1
Na                1.9002493346        2.9530448963        2.3214523933
Na                0.0000000000        0.6424539022        2.5189467376
Na                1.5679048131        1.0803291998        0.0000000000
Na                2.9573761851        0.1498523153        2.4886946513
Na                5.9524481875        0.0000000000        2.6632598824
Na                6.6655918175        2.8863385250        2.2510580314
Na                8.4738416223        0.7327448860        1.2108606295


