%mem=12GB
%chk=checkpoint.chk
%nprocshared=16
#P B3LYP/6-311+g(d) force ! ASE formatted method and basis

Gaussian input prepared by ASE

0 1
Na                2.6977773276        1.9146159274        0.0000000000
Na                4.2533809539        1.9189120681        3.2244151479
Na                4.8001429421        0.0000000000        0.9765062365
Na                2.1152755996        0.0247774004        2.2656730709
Na                0.0000000000        1.9115583515        1.2983501755
Na                2.1066540123        3.8030328853        2.2659956009
Na                4.7855247177        3.8448696586        0.9774196711


