%mem=12GB
%chk=checkpoint.chk
%nprocshared=16
#P B3LYP/6-311+g(d) force ! ASE formatted method and basis

Gaussian input prepared by ASE

0 1
Na                2.0454322201        1.8961860866        2.9640579005
Na                3.9369143993        3.7833074235        1.5876024004
Na                6.2561299885        1.8968756337        1.3409451499
Na                3.9475499157        0.0000000000        1.6070591598
Na                0.9972431380        4.2341569661        1.4010042744
Na                2.2302106876        1.8807085064        0.0000000000
Na                0.0000000000        0.3917254352        1.3552328699


