%mem=12GB
%chk=checkpoint.chk
%nprocshared=16
#P B3LYP/6-311+g(d) force ! ASE formatted method and basis

Gaussian input prepared by ASE

0 1
Na                1.8684961958        1.9728084690        3.4776887938
Na                1.8677736562        1.9729604285        0.0000000000
Na                0.0036064318        3.5658424381        1.7391943377
Na                2.8001774088        3.9467085153        1.7385893486
Na                4.6507928811        1.9707702574        1.7391676827
Na                2.7984385067        0.0000000000        1.7383940927
Na                0.0000000000        0.3820887502        1.7392702502


