%mem=12GB
%chk=checkpoint.chk
%nprocshared=16
#P B3LYP/6-311+g(d) force ! ASE formatted method and basis

Gaussian input prepared by ASE

0 1
Na                1.6422601278        0.6648801805        0.0830903738
Na                2.2580874203        2.2312329235        3.9475124644
Na                0.0000000000        2.3277219003        1.9653047428
Na                1.8400716239        3.6502288343        0.0000000000
Na                3.7658200081        4.1914734672        2.2371518723
Na                4.3211460834        1.9935552692        0.2742110252
Na                3.4857297177        0.0000000000        2.3519201864


