%mem=12GB
%chk=checkpoint.chk
%nprocshared=16
#P B3LYP/6-311+g(d) force ! ASE formatted method and basis

Gaussian input prepared by ASE

0 1
Na                5.0011272531        2.1525753843        3.4588394762
Na                4.8612693708        4.1121714641        0.0000000000
Na                6.9714478797        2.3379321021        1.1982418277
Na                5.1043543458        0.0000000000        1.3847787404
Na                3.5975217086        4.6809877312        2.6600271010
Na                2.9825555033        2.1196117137        1.2382814523
Na                0.0000000000        1.8317690417        1.3465966161


