%mem=12GB
%chk=checkpoint.chk
%nprocshared=16
#P B3LYP/6-311+g(d) force ! ASE formatted method and basis

Gaussian input prepared by ASE

0 1
Na                6.1625091588        1.4859767420        1.7711737984
Na                3.5545927941        0.0000000000        1.7103509394
Na                0.0000000000        2.9754350524        0.0000000000
Na                2.0613661302        2.5703865335        2.1371579145
Na                4.6356098906        4.0733683019        1.7887520652
Na                7.6197513465        4.0887211854        1.4796615665
Na                8.6745956281        1.6247050504        0.1398265853


