%mem=12GB
%chk=checkpoint.chk
%nprocshared=16
#P B3LYP/6-311+g(d) force ! ASE formatted method and basis

Gaussian input prepared by ASE

0 1
Na                4.1587301344        4.0352952991        0.1255342913
Na                0.0000000000        0.4073458843        1.6306109515
Na                0.3985483621        3.3014706140        2.2692972761
Na                1.9069660012        2.0489813761        0.0000000000
Na                4.0787186556        0.0000000000        0.3562627273
Na                5.5226126076        2.0863309719        1.9577667734
Na                8.4754430868        1.6340928706        1.7171921767


