%mem=12GB
%chk=checkpoint.chk
%nprocshared=16
#P B3LYP/6-311+g(d) force ! ASE formatted method and basis

Gaussian input prepared by ASE

0 1
Na                4.2069868232        0.0000000000        2.7392678838
Na                4.3524618488        1.1865976591        0.0000000000
Na                6.8035697401        1.1144954143        1.7292989007
Na                7.3566948066        4.0629522050        1.6447066090
Na                4.5638917714        5.1303443193        1.9015839717
Na                2.9003195156        2.6453668295        2.1864688718
Na                0.0000000000        2.9576455583        1.4891380474


