%mem=12GB
%chk=checkpoint.chk
%nprocshared=16
#P B3LYP/6-311+g(d) force ! ASE formatted method and basis

Gaussian input prepared by ASE

0 1
Na                2.4588931960        1.6457639243        2.9854854879
Na                2.4587844099        1.6449138510        0.0000000000
Na                0.0000000000        0.7994512941        1.4931454076
Na                0.8376593985        3.6766470360        1.4924810883
Na                3.8269323232        3.8646386058        1.4928708996
Na                6.4021526218        2.3141208097        1.4927141232
Na                4.4832484367        0.0000000000        1.4930332061


