%mem=12GB
%chk=checkpoint.chk
%nprocshared=16
#P B3LYP/6-311+g(d) force ! ASE formatted method and basis

Gaussian input prepared by ASE

0 1
Na                2.4757981642        3.0261675368        1.2728669334
Na                5.4846239401        0.1171905216        2.3606322881
Na                5.5618512935        3.1353505465        1.5432265428
Na                3.8902786102        2.0800649352        3.4899170657
Na                4.2440298022        0.8665561496        0.0000000000
Na                2.3900299774        0.0000000000        1.8947417520
Na                0.0000000000        1.6452667299        1.8939603700


