%mem=12GB
%chk=checkpoint.chk
%nprocshared=16
#P B3LYP/6-311+g(d) force ! ASE formatted method and basis

Gaussian input prepared by ASE

0 1
Na                2.2198592702        0.0434002845        0.5418796223
Na                2.2196922413        2.8864308644        0.5378255686
Na                0.0000000000        1.4661668082        1.4785362409
Na                2.2655712729        1.4696573632        3.1265095074
Na                4.3007421938        0.0000000000        2.2146027563
Na                4.4337361901        1.4655455632        0.0000000000
Na                4.2988684484        2.9353221660        2.2108103615


