%mem=12GB
%chk=checkpoint.chk
%nprocshared=16
#P B3LYP/6-311+g(d) force ! ASE formatted method and basis

Gaussian input prepared by ASE

0 1
Na                4.6541118291        4.1202253684        1.7429134644
Na                2.3159994632        3.4433581878        0.0000000000
Na                1.8701003854        4.7901273747        2.6410400081
Na                0.0000000000        2.6299341662        1.7256908909
Na                1.3913948968        0.0000000000        2.1485167655
Na                3.9625863838        1.2476282941        1.2231697246
Na                6.7583989396        2.0002364160        1.9900034601


