%mem=12GB
%chk=checkpoint.chk
%nprocshared=16
#P B3LYP/6-311+g(d) force ! ASE formatted method and basis

Gaussian input prepared by ASE

0 1
Na                2.9907127922        0.0000000000        1.8793247859
Na                2.9696677502        2.3461677490        0.0000000000
Na                5.9816116538        0.2205571380        1.8907898227
Na                5.1690195591        3.1034072389        1.8925149459
Na                2.9726806338        2.3305349248        3.7809921522
Na                0.7683496475        3.0942634104        1.8960646715
Na                0.0000000000        0.1958234714        1.8900118987


