%mem=12GB
%chk=checkpoint.chk
%nprocshared=16
#P B3LYP/6-311+g(d) force ! ASE formatted method and basis

Gaussian input prepared by ASE

0 1
Na                3.2272394774        1.9150893275        0.0000000000
Na                0.0000000000        4.6267869963        2.9987620001
Na                0.4479368159        2.4519635144        0.9846225559
Na                1.9071396616        0.0000000000        1.8972742208
Na                4.0616592243        0.6329656567        3.8900943987
Na                5.7369849789        1.6942804383        1.6349580873
Na                7.4406438922        4.1478194406        1.9007322077


