%mem=12GB
%chk=checkpoint.chk
%nprocshared=16
#P B3LYP/6-311+g(d) force ! ASE formatted method and basis

Gaussian input prepared by ASE

0 1
Na                4.0095290705        1.5002238401        0.0000000000
Na                6.3386470752        1.9871511542        1.8297073759
Na                4.6994541193        4.1732966632        3.0665470837
Na                3.1377583339        4.3284536853        0.5081790837
Na                0.1613630756        4.1757884468        0.8341212550
Na                0.0000000000        1.9216109235        2.8034181607
Na                1.9640058470        0.0000000000        1.6026020117


