%mem=12GB
%chk=checkpoint.chk
%nprocshared=16
#P B3LYP/6-311+g(d) force ! ASE formatted method and basis

Gaussian input prepared by ASE

0 1
Na                2.6414654032        2.0734594339        0.0000000000
Na                1.9066473382        0.0000000000        2.0654933913
Na                4.5493793831        0.1262666157        0.4956663752
Na                4.9753569270        3.1638027097        0.9574437724
Na                0.0000000000        1.9520440524        1.1424253183
Na                2.2710343747        3.0408616952        2.5450480035
Na                4.3495471324        1.3761019056        3.2769955184


