%mem=12GB
%chk=checkpoint.chk
%nprocshared=16
#P B3LYP/6-311+g(d) force ! ASE formatted method and basis

Gaussian input prepared by ASE

0 1
Na                2.4864155945        3.6284547018        1.9794150336
Na                6.7082303231        1.1596352141        0.8278777725
Na                3.4730539871        5.9904915367        0.4149153733
Na                4.7692112794        3.3122552127        0.0622824830
Na                3.8420471531        0.9666271767        1.6814326299
Na                1.5473380857        0.0000000000        0.0000000000
Na                0.0000000000        2.4582306109        0.7605483481


