%mem=12GB
%chk=checkpoint.chk
%nprocshared=16
#P B3LYP/6-311+g(d) force ! ASE formatted method and basis

Gaussian input prepared by ASE

0 1
Na                2.7935000018        2.1593850427        2.7495804702
Na                4.0873661690        4.4687143602        1.7703126744
Na                0.0000000000        2.3265833911        1.8217000832
Na                2.3007679469        2.5616534119        0.0000000000
Na                5.1389773922        2.5306936679        0.0096942453
Na                3.6986788463        0.0000000000        1.1385030380
Na                5.6070183421        1.8885344201        2.7339872047


