%mem=12GB
%chk=checkpoint.chk
%nprocshared=16
#P B3LYP/6-311+g(d) force ! ASE formatted method and basis

Gaussian input prepared by ASE

0 1
Na                5.3223762854        1.2839786269        0.0000000000
Na                4.6203953512        0.0000000000        2.6153908096
Na                7.3905916892        1.0566960754        2.1620557470
Na                7.0855936488        3.9909940913        2.7340759702
Na                4.6407515128        4.0355577943        0.9894709902
Na                2.6523702793        1.8040443450        1.2472867032
Na                0.0000000000        2.4933314198        2.4663091735


