%mem=12GB
%chk=checkpoint.chk
%nprocshared=16
#P B3LYP/6-311+g(d) force ! ASE formatted method and basis

Gaussian input prepared by ASE

0 1
Na                1.0171036765        4.7903483401        0.0000000000
Na                0.0000000000        0.7451531423        0.3281125782
Na                0.6888695186        2.6918533569        4.1509640147
Na                2.1489162018        2.4688565653        1.5378397606
Na                4.4023533985        4.2115194648        2.4940523705
Na                4.8628735227        2.2433070297        0.2911739399
Na                3.8100827152        0.0000000000        1.9612585903


