%mem=12GB
%chk=checkpoint.chk
%nprocshared=16
#P B3LYP/6-311+g(d) force ! ASE formatted method and basis

Gaussian input prepared by ASE

0 1
Na                2.5001727466        0.0000000000        1.8725309468
Na                2.3647999312        2.0950360910        3.3470559927
Na                4.8558447646        1.2854636347        1.7623761028
Na                2.4112371566        1.7901171709        0.0000000000
Na                3.3948192771        3.7779255534        1.5185510421
Na                0.0000000000        0.8450206576        1.6121212299
Na                0.6433711156        3.4287963601        1.7695578984


