%mem=12GB
%chk=checkpoint.chk
%nprocshared=16
#P B3LYP/6-311+g(d) force ! ASE formatted method and basis

Gaussian input prepared by ASE

0 1
Na                4.2090016934        4.2116790808        0.5067906380
Na                1.0790347814        0.0000000000        2.4164756459
Na                0.0000000000        4.4167325097        1.7243857200
Na                1.8875541427        2.3226968734        0.6974173585
Na                4.6162143466        1.2855044323        0.0000000000
Na                7.0661503240        1.3592697484        1.7292706620
Na                6.3307991461        4.1257368648        2.6277268468


