%mem=12GB
%chk=checkpoint.chk
%nprocshared=16
#P B3LYP/6-311+g(d) force ! ASE formatted method and basis

Gaussian input prepared by ASE

0 1
Na                2.6296267826        3.5438270543        2.4573235830
Na                1.8049860044        2.0304680451        0.0000000000
Na                0.0000000000        4.1342881687        1.1525418938
Na                0.0937451942        2.4202779572        3.6112113052
Na                0.7716589253        0.0000000000        1.9598971876
Na                3.6704459096        0.7737663750        1.9775404817
Na                5.5771642996        3.0763083598        2.1774592780


