%mem=12GB
%chk=checkpoint.chk
%nprocshared=16
#P B3LYP/6-311+g(d) force ! ASE formatted method and basis

Gaussian input prepared by ASE

0 1
Na                2.8467283880        0.0190008504        0.7919709270
Na                3.6621595769        1.3252811786        3.3718356814
Na                5.7156331336        0.0000000000        1.6505789139
Na                5.4595849148        2.9806242538        1.6358787100
Na                2.9426604044        2.9221409751        0.0000000000
Na                1.3284622118        3.0238477398        2.5355136336
Na                0.0000000000        0.5044298429        1.5993749746


