%mem=12GB
%chk=checkpoint.chk
%nprocshared=16
#P B3LYP/6-311+g(d) force ! ASE formatted method and basis

Gaussian input prepared by ASE

0 1
Na                4.4809865439        2.0919239430        0.0000000000
Na                2.9745018939        4.2513198615        1.4414109537
Na                0.0350806220        3.6478757378        1.5293908735
Na                0.0000000000        0.6464598450        1.4924920660
Na                2.9318242919        0.0000000000        1.4945706905
Na                4.4311466936        2.1298310998        2.9886763888
Na                7.0542800234        2.1334737978        1.5374016538


