%mem=12GB
%chk=checkpoint.chk
%nprocshared=16
#P B3LYP/6-311+g(d) force ! ASE formatted method and basis

Gaussian input prepared by ASE

0 1
Na                1.3578249607        1.6507655479        2.3190089257
Na                3.6829117719        3.0026256672        2.6331038091
Na                2.0150743765        0.0000000000        0.2690825740
Na                4.4067202562        0.7829848618        1.2703120197
Na                5.5908985050        3.3022002256        0.4727229381
Na                2.7478046186        2.9823790467        0.0000000000
Na                0.0000000000        3.6241782111        0.6820414926


