%mem=12GB
%chk=checkpoint.chk
%nprocshared=16
#P B3LYP/6-311+g(d) force ! ASE formatted method and basis

Gaussian input prepared by ASE

0 1
Na                2.8888490907        2.4595844151        0.0000000000
Na                2.0653161341        0.9393134932        2.4476869771
Na                4.4013270263        0.0000000000        0.8161108631
Na                4.6242409817        2.5065642109        2.4477561722
Na                4.2676731223        4.9970862987        0.8151902870
Na                1.9857339725        3.9356733062        2.4479713882
Na                0.0000000000        2.3831311215        0.8183033116


