%mem=12GB
%chk=checkpoint.chk
%nprocshared=16
#P B3LYP/6-311+g(d) force ! ASE formatted method and basis

Gaussian input prepared by ASE

0 1
Na                2.9564760918        2.6282332707        0.9808695486
Na                3.3380117755        0.1406122621        2.6313310671
Na                0.0000000000        2.1043949161        0.9626924487
Na                1.9104226984        0.0000000000        0.0000000000
Na                4.8677697018        0.5068127608        0.0791495944
Na                5.9047669638        3.1899451326        0.9343004846
Na                7.7224118737        0.8048944102        0.9544128015


