%mem=12GB
%chk=checkpoint.chk
%nprocshared=16
#P B3LYP/6-311+g(d) force ! ASE formatted method and basis

Gaussian input prepared by ASE

0 1
Na                2.2507656468        0.0653771911        0.7273047329
Na                2.6488980733        1.4403813050        3.1315000975
Na                0.0000000000        1.5365810772        1.8845473220
Na                2.2305161727        3.1831261510        0.9438282828
Na                5.0674671607        3.1242705880        2.2168828985
Na                4.5938433383        1.4341449547        0.0000000000
Na                4.9428675519        0.0000000000        2.3803994965


