%mem=12GB
%chk=checkpoint.chk
%nprocshared=16
#P B3LYP/6-311+g(d) force ! ASE formatted method and basis

Gaussian input prepared by ASE

0 1
Na                2.4329887029        0.6220798568        3.6866389652
Na                1.4084790455        1.6530663200        0.0000000000
Na                0.0000000000        0.0000000000        2.0579203273
Na                0.6950994303        2.8470193697        2.6615267444
Na                3.2518921911        4.3992073963        2.3863966675
Na                4.0714101349        1.6828698787        1.4001177159
Na                6.8399938267        0.7083770778        1.9889455746


