%mem=12GB
%chk=checkpoint.chk
%nprocshared=16
#P B3LYP/6-311+g(d) force ! ASE formatted method and basis

Gaussian input prepared by ASE

0 1
Na                0.9329984780        3.6114227341        1.7765543908
Na                3.3788613795        3.6089369379        1.7762537844
Na                0.0000000000        1.3354797501        1.6174838884
Na                2.1531972973        2.0806549185        0.0000000000
Na                2.1534159544        1.9530918358        3.3998597444
Na                2.1466238975        0.0000000000        1.7703141605
Na                4.3000311358        1.3247492840        1.6172303524


