%mem=12GB
%chk=checkpoint.chk
%nprocshared=16
#P B3LYP/6-311+g(d) force ! ASE formatted method and basis

Gaussian input prepared by ASE

0 1
Na                0.2650742573        2.5237290848        2.9690600484
Na                1.2289063783        0.0000000000        1.6662741940
Na                7.9110274333        2.0655904631        0.9822679505
Na                5.4606250776        3.3428698803        2.1462228031
Na                2.7087114944        2.5751609480        1.2291368645
Na                0.0000000000        2.1708425527        0.0000000000
Na                0.7482914532        4.8437264820        1.1316478198


