%mem=12GB
%chk=checkpoint.chk
%nprocshared=16
#P B3LYP/6-311+g(d) force ! ASE formatted method and basis

Gaussian input prepared by ASE

0 1
Na                2.8286481096        0.0000000000        1.0869986152
Na                0.0000000000        3.0290400005        0.0560492139
Na                0.0326422317        0.0244634606        0.0000000000
Na                0.4880329103        0.0118089667        2.9654545383
Na                0.5913829866        3.0152197857        2.9983245036
Na                2.8395081729        3.0040335337        1.0168174129
Na                5.4058517890        1.4994134062        1.3532893880


