%mem=12GB
%chk=checkpoint.chk
%nprocshared=16
#P B3LYP/6-311+g(d) force ! ASE formatted method and basis

Gaussian input prepared by ASE

0 1
Na                0.0000000000        2.5536958192        2.5332710613
Na                1.1712961202        2.4693702536        0.0000000000
Na                6.3146498276        1.9713405086        1.8962348396
Na                3.4290547971        1.7532004038        1.5203954766
Na                2.0887182154        4.3995877004        2.2736343723
Na                2.2241002003        1.8442331122        4.0632405222
Na                0.9485166819        0.0000000000        1.8937622494


