%mem=12GB
%chk=checkpoint.chk
%nprocshared=16
#P B3LYP/6-311+g(d) force ! ASE formatted method and basis

Gaussian input prepared by ASE

0 1
Na                2.3815206156        2.5014370371        0.0000000000
Na                2.3794776959        2.4941545185        2.8452440863
Na                4.8530372634        1.9936387835        1.4231275316
Na                2.7469848761        0.0000000000        1.4159513039
Na                0.2986833734        0.7840170773        2.7621572971
Na                0.2981050429        0.7912527541        0.0767861727
Na                0.0000000000        3.3403544441        1.4243478357


