%mem=12GB
%chk=checkpoint.chk
%nprocshared=16
#P B3LYP/6-311+g(d) force ! ASE formatted method and basis

Gaussian input prepared by ASE

0 1
Na                0.0000000000        2.9399031153        1.3709431039
Na                2.5421996580        4.2154663483        0.4220923281
Na                0.4789936662        0.0000000000        1.0222789409
Na                2.6415848510        1.7565545781        2.1387868087
Na                5.6082353758        1.7727251969        2.6069612966
Na                6.6098066426        0.6732464052        0.0000000000
Na                8.1580703001        2.8166726692        1.4179094309


