%mem=12GB
%chk=checkpoint.chk
%nprocshared=16
#P B3LYP/6-311+g(d) force ! ASE formatted method and basis

Gaussian input prepared by ASE

0 1
Na                2.8752386858        0.7003862570        2.6281693168
Na                3.0371841503        2.1374839367        0.0000000000
Na                5.1710830788        0.1764502296        0.7712726425
Na                4.9653907856        2.8054585337        2.1955193629
Na                2.0853101102        3.5924201627        2.4361839864
Na                0.0955988489        2.5224082564        0.4606115909
Na                0.0000000000        0.0000000000        2.0950490802


