%mem=12GB
%chk=checkpoint.chk
%nprocshared=16
#P B3LYP/6-311+g(d) force ! ASE formatted method and basis

Gaussian input prepared by ASE

0 1
Na                1.4661905984        1.9208811548        2.6855708650
Na                0.0000000000        3.8325516393        1.0269049621
Na                0.0056813175        0.0000000000        1.0291685180
Na                1.9525870810        1.9191914720        0.0000000000
Na                4.6929775646        1.9176595792        0.1025722577
Na                3.6787644705        0.3733220614        2.1400250370
Na                3.6811939349        3.4645950635        2.1393435354


