%mem=12GB
%chk=checkpoint.chk
%nprocshared=16
#P B3LYP/6-311+g(d) force ! ASE formatted method and basis

Gaussian input prepared by ASE

0 1
Na                3.0109443192        0.0000000000        1.6879035774
Na                3.0049932778        2.4888001176        0.0140379506
Na                5.4522446544        1.7339060364        1.5690841588
Na                3.0061774229        2.6941068631        3.0049294055
Na                0.0000000000        2.7214806433        2.9885353313
Na                0.0006488641        2.4606489714        0.0000000000
Na                0.0039510026        0.0035547599        1.7195033436


