%mem=12GB
%chk=checkpoint.chk
%nprocshared=16
#P B3LYP/6-311+g(d) force ! ASE formatted method and basis

Gaussian input prepared by ASE

0 1
Na                4.3399128255        2.3485820433        3.5012698553
Na                4.0793880822        4.1069220041        1.3513191305
Na                0.0000000000        2.0937252415        1.8173991475
Na                2.7741881839        1.2780352594        1.4196607063
Na                5.5485252094        0.0000000000        1.9365805093
Na                5.3945200897        2.0404797868        0.0000000000
Na                6.8061401839        2.8336024829        2.2698324703


