%mem=12GB
%chk=checkpoint.chk
%nprocshared=16
#P B3LYP/6-311+g(d) force ! ASE formatted method and basis

Gaussian input prepared by ASE

0 1
Na                6.8012975976        4.5319986944        2.8594010098
Na                8.5434515051        0.0000000000        2.0355362639
Na               10.3808073062        3.8195567630        0.0000000000
Na                7.7472942448        2.6012760691        0.7661256752
Na                4.8209784907        2.8292683183        1.3884300377
Na                2.2601311976        1.4056210291        0.7507623811
Na                0.0000000000        3.3579881298        1.0311310626


