%mem=12GB
%chk=checkpoint.chk
%nprocshared=16
#P B3LYP/6-311+g(d) force ! ASE formatted method and basis

Gaussian input prepared by ASE

0 1
Na                0.0000000000        0.0307395603        0.8777314294
Na                2.3713812402        1.8505886986        1.1771333607
Na                0.6288848879        3.8354125114        2.6061215942
Na                3.4409149664        4.5602122428        1.9011343667
Na                4.9573450364        2.8183293838        0.0000000000
Na                6.5993395115        1.3895182355        2.0666585061
Na                4.0550332866        0.0000000000        2.8449793722


