%mem=12GB
%chk=checkpoint.chk
%nprocshared=16
#P B3LYP/6-311+g(d) force ! ASE formatted method and basis

Gaussian input prepared by ASE

0 1
Na                2.4854094056        0.0000000000        2.0813000831
Na                2.5594384479        2.9254965473        1.4305534580
Na                0.0000000000        3.5567461458        0.0000000000
Na                1.1380168215        5.5166173461        1.9547766182
Na                3.7244315731        6.9610439908        1.4723469129
Na                5.1383296642        4.3636201606        1.9918593046
Na                7.3018740692        3.0046104553        0.4220460342


