%mem=12GB
%chk=checkpoint.chk
%nprocshared=16
#P B3LYP/6-311+g(d) force ! ASE formatted method and basis

Gaussian input prepared by ASE

0 1
Na                4.5765583021        2.7675687728        4.7514584192
Na                2.7044515601        5.9413243186        2.8998923279
Na                2.9876102481        0.0000000000        2.1050119729
Na                4.3445078319        3.3375290410        0.0000000000
Na                2.6536827138        2.9669284610        2.4517072756
Na                0.1113169779        2.5056500446        3.9726252968
Na                0.0000000000        3.1795842596        1.0695070520


