%mem=12GB
%chk=checkpoint.chk
%nprocshared=16
#P B3LYP/6-311+g(d) force ! ASE formatted method and basis

Gaussian input prepared by ASE

0 1
Na                2.4485291001        1.3502253364        0.0000000000
Na                2.4418283400        3.2841940042        1.9098621378
Na                4.8883441291        2.3997822211        1.9239813534
Na                3.8744443830        0.0033031958        1.9298946413
Na                2.4490592731        1.3750262765        3.8483034116
Na                1.0248833359        0.0000000000        1.9324659887
Na                0.0000000000        2.3924279712        1.9229467802


