%mem=12GB
%chk=checkpoint.chk
%nprocshared=16
#P B3LYP/6-311+g(d) force ! ASE formatted method and basis

Gaussian input prepared by ASE

0 1
Na                2.3077403640        2.9487835173        0.0000000000
Na                4.6920922203        3.5406739080        1.7226593446
Na                5.4188799566        0.9346619800        3.0130136845
Na                4.5816937486        1.0029550213        0.1350543631
Na                1.7552288993        0.0000000000        0.1343272433
Na                0.1078015234        0.4780075045        2.5990536501
Na                0.0000000000        3.3889902768        1.8752563537


