%mem=12GB
%chk=checkpoint.chk
%nprocshared=16
#P B3LYP/6-311+g(d) force ! ASE formatted method and basis

Gaussian input prepared by ASE

0 1
Na                2.1851483370        1.6759083610        0.0000000000
Na                2.1721396869        3.6125147399        1.6693832065
Na                0.0000000000        2.3210961236        1.6729422268
Na                3.4539109748        0.0840813471        1.6722470005
Na                2.1828773682        1.6750262602        3.3417033444
Na                1.0202958617        0.0000000000        1.6684731857
Na                4.3682912827        2.3641379807        1.6726013418


