%mem=12GB
%chk=checkpoint.chk
%nprocshared=16
#P B3LYP/6-311+g(d) force ! ASE formatted method and basis

Gaussian input prepared by ASE

0 1
Na                2.4814054655        1.9936735145        0.0000000000
Na                2.4724564777        0.0000000000        1.6730787759
Na                1.0344787104        3.2521139720        1.9999655526
Na                0.0000000000        0.8264057798        2.0147835235
Na                2.4782395639        1.7327050792        3.8652226593
Na                4.9504850460        0.8192448875        2.0167011535
Na                3.9268960418        3.2480566195        1.9999776397


