%mem=12GB
%chk=checkpoint.chk
%nprocshared=16
#P B3LYP/6-311+g(d) force ! ASE formatted method and basis

Gaussian input prepared by ASE

0 1
Na                2.1858368864        1.9071836746        0.0000000000
Na                2.1716385107        0.9167535100        2.8209585309
Na                4.3129737101        0.0000000000        0.9265679400
Na                4.3052132046        2.8256818474        1.9134969184
Na                2.2307289517        4.7595141647        0.9289969128
Na                0.0983314839        2.8921559871        1.9136847310
Na                0.0000000000        0.0661348971        0.9277793266


