%mem=12GB
%chk=checkpoint.chk
%nprocshared=16
#P B3LYP/6-311+g(d) force ! ASE formatted method and basis

Gaussian input prepared by ASE

0 1
Na                2.4948642482        1.3715447712        3.9769921997
Na                2.4926388923        3.2899292767        2.1745895009
Na                4.9837404902        2.4121818797        1.9063285275
Na                3.8523600429        0.0009603905        1.9579166514
Na                2.4930114253        1.5118259935        0.0000000000
Na                1.1374454060        0.0000000000        1.9580325662
Na                0.0000000000        2.4091469362        1.9077508486


