%mem=12GB
%chk=checkpoint.chk
%nprocshared=16
#P B3LYP/6-311+g(d) force ! ASE formatted method and basis

Gaussian input prepared by ASE

0 1
Na                2.0683497445        2.0976779600        3.6835013493
Na                4.1679493553        0.5680215496        2.1896110706
Na                5.5561135548        2.0733758515        0.0000000000
Na                4.2535934665        3.5630528791        2.2494789747
Na                1.3837024848        4.2373230611        1.6925928020
Na                0.0000000000        2.1577027145        0.0241975476
Na                1.2620536735        0.0000000000        1.6913420990


