%mem=12GB
%chk=checkpoint.chk
%nprocshared=16
#P B3LYP/6-311+g(d) force ! ASE formatted method and basis

Gaussian input prepared by ASE

0 1
Na                0.8706010202        5.2004936686        1.3509392377
Na                7.1295798932        0.0000000000        1.0307379588
Na                7.4628641723        4.8315240651        0.0000000000
Na                7.2163425672        2.7739108015        2.1689128698
Na                4.4803246709        3.0776267663        3.3618897570
Na                2.2296807196        2.5284335019        1.4528462765
Na                0.0000000000        0.6492738706        0.7521852763


