%mem=12GB
%chk=checkpoint.chk
%nprocshared=16
#P B3LYP/6-311+g(d) force ! ASE formatted method and basis

Gaussian input prepared by ASE

0 1
Na                2.8720665536        2.8106880234        0.0000000000
Na                3.0113669026        3.5262018716        2.9112328564
Na                5.4882779706        3.5895363772        1.2336691820
Na                6.2725418699        0.7137156114        1.5372199099
Na                3.4333310449        0.0000000000        0.9151899353
Na                1.4370666916        0.9689675753        2.9390690065
Na                0.0000000000        2.1519647323        0.5823199675


