%mem=12GB
%chk=checkpoint.chk
%nprocshared=16
#P B3LYP/6-311+g(d) force ! ASE formatted method and basis

Gaussian input prepared by ASE

0 1
Na                1.8431905953        2.3441873312        0.0000000000
Na                3.1131317721        4.6911326763        1.3771975390
Na                7.1872482594        2.3481231372        2.0153397076
Na                4.5398129939        1.4714560312        1.0028631337
Na                1.4154137299        0.0000000000        1.8262333102
Na                2.6884133762        2.3448801628        3.2052837671
Na                0.0000000000        3.2285475018        2.1998810824


