%mem=12GB
%chk=checkpoint.chk
%nprocshared=16
#P B3LYP/6-311+g(d) force ! ASE formatted method and basis

Gaussian input prepared by ASE

0 1
Na                2.2435519471        2.0925271524        0.0000000000
Na                5.0104810006        2.1477173539        0.1097052666
Na                0.0000000000        2.2534794909        1.7855919002
Na                2.6104817001        2.5861505752        2.9445408330
Na                3.6810476372        4.5037855638        1.2953716507
Na                5.3379279251        2.3426435636        2.8301096122
Na                3.6598954052        0.0000000000        1.7320251347


