%mem=12GB
%chk=checkpoint.chk
%nprocshared=16
#P B3LYP/6-311+g(d) force ! ASE formatted method and basis

Gaussian input prepared by ASE

0 1
Na                3.8271742727        0.0000000000        3.9365238259
Na                5.0228038147        1.7334126314        0.0000000000
Na                7.4600956616        4.4952739116        3.0598292323
Na                5.8007005632        2.0003583140        2.8825007226
Na                2.9155997248        2.1821893335        2.0892598014
Na                2.0433284627        4.9789363247        2.7432567157
Na                0.0000000000        2.8098323317        2.4357732368


