%mem=12GB
%chk=checkpoint.chk
%nprocshared=16
#P B3LYP/6-311+g(d) force ! ASE formatted method and basis

Gaussian input prepared by ASE

0 1
Na                0.2873371244        2.4745105710        0.6719866083
Na                2.7321550241        4.2139792258        0.8080602515
Na                5.5062065942        1.1492854955        2.6781458861
Na                2.5634579494        1.6947719413        2.4415872206
Na                0.0000000000        2.6929179901        3.6513553207
Na                0.0878262923        0.0000000000        2.3547333996
Na                1.9352268617        0.0558563231        0.0000000000


