%mem=12GB
%chk=checkpoint.chk
%nprocshared=16
#P B3LYP/6-311+g(d) force ! ASE formatted method and basis

Gaussian input prepared by ASE

0 1
Na                4.4926426008        3.8377178350        2.4985151258
Na                4.4114056131        0.0995289446        4.0047761550
Na                6.3354975927        1.4902536947        2.1663426840
Na                4.4246231986        0.6657590689        0.0000000000
Na                1.5790957937        4.4068752164        2.1646502451
Na                2.5472323624        1.5744037911        2.1638957313
Na                0.0000000000        0.0000000000        2.1686469399


