%mem=12GB
%chk=checkpoint.chk
%nprocshared=16
#P B3LYP/6-311+g(d) force ! ASE formatted method and basis

Gaussian input prepared by ASE

0 1
Na                4.7186598057        0.8752202433        2.2308500416
Na                7.2950811556        2.2896010130        2.8183017112
Na                6.2811238319        2.1343419957        0.0000000000
Na                4.8751725122        3.8621921321        2.0066861673
Na                1.9667496792        4.5962140003        1.8643509150
Na                0.0000000000        2.3400208125        1.6646184387
Na                1.8703916752        0.0000000000        1.8603931693


