%mem=12GB
%chk=checkpoint.chk
%nprocshared=16
#P B3LYP/6-311+g(d) force ! ASE formatted method and basis

Gaussian input prepared by ASE

0 1
Na                6.3605508825        1.8474389652        0.7539900282
Na                5.1864367138        0.9744296297        3.0599533234
Na                0.0000000000        1.9065779765        1.5093083442
Na                2.7667077431        1.6189268631        2.0176692154
Na                3.9905622259        2.9188035034        0.0000000000
Na                4.4342081796        0.0000000000        0.6533392511
Na                5.0568377674        3.5563041724        2.3919783699


