%mem=12GB
%chk=checkpoint.chk
%nprocshared=16
#P B3LYP/6-311+g(d) force ! ASE formatted method and basis

Gaussian input prepared by ASE

0 1
Na                4.5659492628        1.7092996228        3.0101767180
Na                3.3195336087        0.0000000000        0.8935104441
Na                6.1529103064        4.2498476650        2.8258968835
Na                5.1478971265        4.3788226819        0.0000000000
Na                2.7048158801        2.9332510514        0.9952199309
Na                1.3621326035        5.4967132189        1.7894875611
Na                0.0000000000        2.8812969765        2.2944177735


