%mem=12GB
%chk=checkpoint.chk
%nprocshared=16
#P B3LYP/6-311+g(d) force ! ASE formatted method and basis

Gaussian input prepared by ASE

0 1
Na                4.4803957688        4.5168489235        3.5375076086
Na                0.2483030521        4.6581279126        4.2705113215
Na                1.6062285301        4.0075989319        0.0000000000
Na                2.1056439982        2.8599620879        2.7324517990
Na                4.8919640083        1.8420963710        2.2679566447
Na                2.7940207833        0.0000000000        3.3373045309
Na                0.0000000000        0.7214364627        2.5550075331


