%mem=12GB
%chk=checkpoint.chk
%nprocshared=16
#P B3LYP/6-311+g(d) force ! ASE formatted method and basis

Gaussian input prepared by ASE

0 1
Na                6.6315336724        2.7286165687        0.0000000000
Na                7.4971856166        0.0000000000        0.9088158552
Na                8.0692156181        1.1005720087        3.6424496963
Na                7.5099910819        3.8705966868        2.6311914869
Na                4.5925720886        3.7343849424        1.9541083913
Na                2.8456620640        1.4249243716        2.7357622939
Na                0.0000000000        1.6980946329        1.8323069584


