%mem=12GB
%chk=checkpoint.chk
%nprocshared=16
#P B3LYP/6-311+g(d) force ! ASE formatted method and basis

Gaussian input prepared by ASE

0 1
Na                2.4772625777        2.1990580526        3.1175649941
Na                1.9288465671        0.0000000000        1.2676062046
Na                4.7989006655        0.9131738910        1.8145590163
Na                4.7670985133        3.9310717696        1.3037107603
Na                2.4708969446        2.6034850836        0.0000000000
Na                1.8767288092        4.7873596552        1.8530178528
Na                0.0000000000        2.3734319622        1.5595970790


