%mem=12GB
%chk=checkpoint.chk
%nprocshared=16
#P B3LYP/6-311+g(d) force ! ASE formatted method and basis

Gaussian input prepared by ASE

0 1
Na                1.3604285156        1.8084617295        2.4846994212
Na                3.5322550802        0.2285608952        2.5728358031
Na                1.8663024615        3.4489529341        0.4196883236
Na                4.2389618381        2.7989058522        1.5272184118
Na                5.5272557096        0.4402520634        0.5243008561
Na                2.7124136283        0.6579449982        0.0000000000
Na                0.0000000000        0.0000000000        0.7031703040


