%mem=12GB
%chk=checkpoint.chk
%nprocshared=16
#P B3LYP/6-311+g(d) force ! ASE formatted method and basis

Gaussian input prepared by ASE

0 1
Na                2.3612241665        2.8498403916        2.2334054530
Na                5.0069120026        1.4758746399        2.6353995731
Na                3.9336504745        4.8615787311        0.6454857353
Na                5.8383690895        2.6337623704        0.0000000000
Na                4.4116780934        0.0000000000        0.0948861119
Na                1.5433052027        0.2691233799        0.9355030853
Na                0.0000000000        2.7719340852        0.3871646942


