%mem=12GB
%chk=checkpoint.chk
%nprocshared=16
#P B3LYP/6-311+g(d) force ! ASE formatted method and basis

Gaussian input prepared by ASE

0 1
Na                7.8487222241        1.0153748609        2.9578405969
Na                3.7947560629        0.0000000000        1.4024671565
Na                0.0000000000        2.4888083995        2.0394146240
Na                2.7107466643        2.7227712596        0.7757367807
Na                5.5971836855        2.3984913261        1.5355081650
Na                8.2305978199        3.7928883555        1.8960640843
Na                8.0093303542        1.4837192989        0.0000000000


