%mem=12GB
%chk=checkpoint.chk
%nprocshared=16
#P B3LYP/6-311+g(d) force ! ASE formatted method and basis

Gaussian input prepared by ASE

0 1
Na                4.9049218326        0.0000000000        0.0000000000
Na                0.0000000000        2.7756312434        0.2719547657
Na                2.9972579236        1.7470961615        3.6674738872
Na                2.8968133597        2.1232414349        0.6928324703
Na                4.3839216958        4.6962096115        0.2770381907
Na                7.0747907774        4.2077573605        1.5058277477
Na                7.4857180804        1.3373884008        0.7387131921


