%mem=12GB
%chk=checkpoint.chk
%nprocshared=16
#P B3LYP/6-311+g(d) force ! ASE formatted method and basis

Gaussian input prepared by ASE

0 1
Na                4.5134038408        2.0457325797        4.1060448644
Na                6.3966459387        2.8678910280        2.2328538340
Na                5.3930278370        0.0000000000        1.9687265884
Na                4.8389356966        2.3117585972        0.0000000000
Na                3.7933998850        4.3394352964        2.1224412750
Na                2.8871997473        1.7402751086        1.8831146066
Na                0.0000000000        1.8535127708        2.0076971715


