%mem=12GB
%chk=checkpoint.chk
%nprocshared=16
#P B3LYP/6-311+g(d) force ! ASE formatted method and basis

Gaussian input prepared by ASE

0 1
Na                0.0000000000        2.1173167958        0.1615963165
Na                3.0633724600        6.0325107627        1.2482003696
Na                1.8083975229        3.4585534480        2.1417784629
Na                2.3100032348        0.6115888787        1.3351846548
Na                5.2251636286        0.0000000000        0.9750022236
Na                6.7926572788        2.1664475038        2.3388379637
Na                7.9128719128        3.6781867576        0.0000000000


