%mem=12GB
%chk=checkpoint.chk
%nprocshared=16
#P B3LYP/6-311+g(d) force ! ASE formatted method and basis

Gaussian input prepared by ASE

0 1
Na                1.7571494629        1.6798873748        3.5923118520
Na                3.1354454657        0.0000000000        1.7833580883
Na                5.7116552802        1.4273757250        1.8282249404
Na                3.3004811455        3.1114295471        1.6851166678
Na                0.1760734525        3.1748978536        1.7883816044
Na                1.3657096133        1.3212854244        0.0000000000
Na                0.0000000000        0.0422753950        2.1124415872


