%mem=12GB
%chk=checkpoint.chk
%nprocshared=16
#P B3LYP/6-311+g(d) force ! ASE formatted method and basis

Gaussian input prepared by ASE

0 1
Na                5.7816929663        2.0603387984        2.5644676926
Na                0.0000000000        3.5423221314        3.2035045368
Na                2.3668166227        2.0064717938        0.0000000000
Na                3.3981515425        3.5668619964        5.6960550451
Na                3.5132025940        5.6024477306        2.0044787170
Na                2.8848148161        2.7933253717        2.8480337765
Na                2.2711174417        0.0000000000        3.7602476894


