%mem=12GB
%chk=checkpoint.chk
%nprocshared=16
#P B3LYP/6-311+g(d) force ! ASE formatted method and basis

Gaussian input prepared by ASE

0 1
Na                2.3272923249        1.7707803597        3.0167600285
Na                4.5324640472        3.9023578973        0.0000000000
Na                4.3513911088        3.9935143304        2.9923342832
Na                6.3013152403        2.1433936193        1.6621245997
Na                4.2024762405        0.0000000000        1.4904444517
Na                2.3450870326        1.8428691105        0.0197665589
Na                0.0000000000        2.9345793738        1.5324518595


