%NProcShared=16
%mem=12GB
%Chk=checkpoint.chk
#p B3LYP/6-311+g(d) force

!min_dist: 2.2 max_dist: 5.8

0 1
Na 0.0 0.0 0.0
Na -1.8925632704167272 1.8420376138627101 0.0
Na -4.752061342320859 1.3494875749040183 0.0
Na -8.835474616977386 0.6461175019257203 0.0

--Link1--




%NProcShared=16
%mem=12GB
%Chk=checkpoint.chk
#p B3LYP/6-311+g(d) force

!min_dist: 2.2 max_dist: 5.8

0 1
Na 0.0 0.0 0.0
Na -3.5529226068086803 0.6262702449642512 0.0
Na -5.361198648750125 -1.3358400730450937 0.0
Na -8.48069021943198 -4.720714094384501 0.0

--Link1--

%NProcShared=16
%mem=12GB
%Chk=checkpoint.chk
#p B3LYP/6-311+g(d) force

!min_dist: 2.2 max_dist: 5.8

0 1
Na 0.0 0.0 0.0
Na -3.506925796324621 2.964860663649772 0.0
Na -7.755889536318966 -0.6901283446383011 0.0
Na -9.70177752815317 -2.363995117039432 0.0

--Link1--

%NProcShared=16
%mem=12GB
%Chk=checkpoint.chk
#p B3LYP/6-311+g(d) force

!min_dist: 2.2 max_dist: 5.8

0 1
Na 0.0 0.0 0.0
Na 3.5887965388643916 3.2454407455528913 0.0
Na 1.3656530966856892 4.208132093315204 0.0
Na -2.1937554645686785 5.749468455179723 0.0

--Link1--

%NProcShared=16
%mem=12GB
%Chk=checkpoint.chk
#p B3LYP/6-311+g(d) force

!min_dist: 2.2 max_dist: 5.8

0 1
Na 0.0 0.0 0.0
Na -4.80521161709455 0.3896660339592185 0.0
Na -3.420215337425618 -3.115541022384079 0.0
Na -1.4088690953678071 -8.205941006776733 0.0

--Link1--

%NProcShared=16
%mem=12GB
%Chk=checkpoint.chk
#p B3LYP/6-311+g(d) force

!min_dist: 2.2 max_dist: 5.8

0 1
Na 0.0 0.0 0.0
Na -0.9031138665644382 4.980436270609155 0.0
Na -1.6092609236078301 2.3066911948193756 0.0
Na -2.3105247564599782 -0.3485641110208091 0.0

--Link1--

%NProcShared=16
%mem=12GB
%Chk=checkpoint.chk
#p B3LYP/6-311+g(d) force

!min_dist: 2.2 max_dist: 5.8

0 1
Na 0.0 0.0 0.0
Na -1.5375707026527838 2.7475876682724696 0.0
Na -5.245846740287538 4.839371092461128 0.0
Na -9.375854469883926 7.169047099010796 0.0

--Link1--


%NProcShared=16
%mem=12GB
%Chk=checkpoint.chk
#p B3LYP/6-311+g(d) force

!min_dist: 2.2 max_dist: 5.8

0 1
Na 0.0 0.0 0.0
Na 2.590564303705269 3.14641365059365 0.0
Na 3.8408128715758494 6.736621557750352 0.0
Na 5.531797486798985 11.592445025554454 0.0

--Link1--

%NProcShared=16
%mem=12GB
%Chk=checkpoint.chk
#p B3LYP/6-311+g(d) force

!min_dist: 2.2 max_dist: 5.8

0 1
Na 0.0 0.0 0.0
Na 3.72403396024033 2.7157406160414874 0.0
Na -1.4712041960610702 4.446766635328093 0.0
Na -4.290841002729984 5.3862547839824515 0.0

--Link1--

%NProcShared=16
%mem=12GB
%Chk=checkpoint.chk
#p B3LYP/6-311+g(d) force

!min_dist: 2.2 max_dist: 5.8

0 1
Na 0.0 0.0 0.0
Na 2.1906135196235477 4.557575432343388 0.0
Na 1.908288622466997 9.544429554814245 0.0
Na 1.727701093965695 12.734242674534164 0.0

--Link1--


%NProcShared=16
%mem=12GB
%Chk=checkpoint.chk
#p B3LYP/6-311+g(d) force

!min_dist: 2.2 max_dist: 5.8

0 1
Na 0.0 0.0 0.0
Na 2.6518324596297482 1.2051255564326702 0.0
Na -2.775017953704216 0.5663040522205907 0.0
Na -5.150509451742122 0.2866731546577993 0.0

--Link1--

%NProcShared=16
%mem=12GB
%Chk=checkpoint.chk
#p B3LYP/6-311+g(d) force

!min_dist: 2.2 max_dist: 5.8

0 1
Na 0.0 0.0 0.0
Na -4.91139712212908 2.5846948841703776 0.0
Na -4.260656624279435 -1.310317933782997 0.0
Na -3.7574317851110353 -4.322374514479043 0.0

--Link1--

%NProcShared=16
%mem=12GB
%Chk=checkpoint.chk
#p B3LYP/6-311+g(d) force

!min_dist: 2.2 max_dist: 5.8

0 1
Na 0.0 0.0 0.0
Na 4.0957778982661734 0.3414290470085676 0.0
Na 6.553967181583757 1.4930091559416283 0.0
Na 11.524331014941382 3.821459679869587 0.0

--Link1--

%NProcShared=16
%mem=12GB
%Chk=checkpoint.chk
#p B3LYP/6-311+g(d) force

!min_dist: 2.2 max_dist: 5.8

0 1
Na 0.0 0.0 0.0
Na -4.483170058759704 1.1098452082438792 0.0
Na -7.0264467336747884 1.2805880894304982 0.0
Na -10.067109413439816 1.4847229803687958 0.0

--Link1--

%NProcShared=16
%mem=12GB
%Chk=checkpoint.chk
#p B3LYP/6-311+g(d) force

!min_dist: 2.2 max_dist: 5.8

0 1
Na 0.0 0.0 0.0
Na 4.588431310997075 3.2296242610460193 0.0
Na 6.809692089077151 7.255222224999484 0.0
Na 8.686183473255191 10.655993521223674 0.0

--Link1--

%NProcShared=16
%mem=12GB
%Chk=checkpoint.chk
#p B3LYP/6-311+g(d) force

!min_dist: 2.2 max_dist: 5.8

0 1
Na 0.0 0.0 0.0
Na -3.914016333927556 3.4039422050585917 0.0
Na -7.902592460656727 4.3158880256632415 0.0
Na -10.632605047953959 4.940076580696641 0.0

--Link1--

%NProcShared=16
%mem=12GB
%Chk=checkpoint.chk
#p B3LYP/6-311+g(d) force

!min_dist: 2.2 max_dist: 5.8

0 1
Na 0.0 0.0 0.0
Na -3.7589282511891233 1.3667810474717332 0.0
Na -4.67282156416927 -0.7495551304263381 0.0
Na -6.470055086748724 -4.911474546996916 0.0

--Link1--

%NProcShared=16
%mem=12GB
%Chk=checkpoint.chk
#p B3LYP/6-311+g(d) force

!min_dist: 2.2 max_dist: 5.8

0 1
Na 0.0 0.0 0.0
Na -0.2688449888205033 3.524595728025489 0.0
Na -4.059929811420272 0.9949292308253423 0.0
Na -6.607239258237886 -0.7048067727592557 0.0

--Link1--

%NProcShared=16
%mem=12GB
%Chk=checkpoint.chk
#p B3LYP/6-311+g(d) force

!min_dist: 2.2 max_dist: 5.8

0 1
Na 0.0 0.0 0.0
Na 1.4708951702921524 1.9905401269519611 0.0
Na -2.4280872956050574 6.0508006044669544 0.0
Na -4.695108810257449 8.411595488293433 0.0

--Link1--

%NProcShared=16
%mem=12GB
%Chk=checkpoint.chk
#p B3LYP/6-311+g(d) force

!min_dist: 2.2 max_dist: 5.8

0 1
Na 0.0 0.0 0.0
Na 2.144179569842383 2.794311113694052 0.0
Na -2.601280290839149 4.338342470490262 0.0
Na -6.883586975191534 5.731677572709099 0.0

--Link1--

%NProcShared=16
%mem=12GB
%Chk=checkpoint.chk
#p B3LYP/6-311+g(d) force

!min_dist: 2.2 max_dist: 5.8

0 1
Na 0.0 0.0 0.0
Na -2.319149088661429 3.0761909113459036 0.0
Na -5.368047030811203 1.352826915420456 0.0
Na -7.413433932906067 0.19668912016111695 0.0

--Link1--


%NProcShared=16
%mem=12GB
%Chk=checkpoint.chk
#p B3LYP/6-311+g(d) force

!min_dist: 2.2 max_dist: 5.8

0 1
Na 0.0 0.0 0.0
Na -1.398563811515944 5.061725712453579 0.0
Na -2.387427185173817 0.2026678012251777 0.0
Na -3.237133659679733 -3.9726036034556884 0.0

--Link1--

%NProcShared=16
%mem=12GB
%Chk=checkpoint.chk
#p B3LYP/6-311+g(d) force

!min_dist: 2.2 max_dist: 5.8

0 1
Na 0.0 0.0 0.0
Na 1.0481532283360242 3.7243234061671378 0.0
Na -1.5558471880403413 4.941408935608714 0.0
Na -4.720019780279125 6.420313720128094 0.0

--Link1--




%NProcShared=16
%mem=12GB
%Chk=checkpoint.chk
#p B3LYP/6-311+g(d) force

!min_dist: 2.2 max_dist: 5.8

0 1
Na 0.0 0.0 0.0
Na 2.144809001463884 0.6755061730235218 0.0
Na 0.2574733248918055 2.4364907583687607 0.0
Na -2.2609174068102598 4.78628327988701 0.0

--Link1--

%NProcShared=16
%mem=12GB
%Chk=checkpoint.chk
#p B3LYP/6-311+g(d) force

!min_dist: 2.2 max_dist: 5.8

0 1
Na 0.0 0.0 0.0
Na -2.893373414510581 2.53573123649705 0.0
Na -5.679390407190853 -1.146171445649082 0.0
Na -7.247011607456806 -3.2178848332604026 0.0

--Link1--

%NProcShared=16
%mem=12GB
%Chk=checkpoint.chk
#p B3LYP/6-311+g(d) force

!min_dist: 2.2 max_dist: 5.8

0 1
Na 0.0 0.0 0.0
Na 2.8696727596605665 4.113592096359713 0.0
Na -0.8492024247383214 6.408809620647542 0.0
Na -5.396575778364857 9.215360121322705 0.0

--Link1--

%NProcShared=16
%mem=12GB
%Chk=checkpoint.chk
#p B3LYP/6-311+g(d) force

!min_dist: 2.2 max_dist: 5.8

0 1
Na 0.0 0.0 0.0
Na -0.23659640915843372 2.713308562751626 0.0
Na -0.761236681497925 5.29268955750999 0.0
Na -1.7577955627447592 10.192246785519329 0.0

--Link1--

%NProcShared=16
%mem=12GB
%Chk=checkpoint.chk
#p B3LYP/6-311+g(d) force

!min_dist: 2.2 max_dist: 5.8

0 1
Na 0.0 0.0 0.0
Na 3.3525598290080523 1.5651136643426897 0.0
Na -0.08311181696692627 3.6836883048980056 0.0
Na -4.234117579417507 6.243367007439195 0.0

--Link1--

%NProcShared=16
%mem=12GB
%Chk=checkpoint.chk
#p B3LYP/6-311+g(d) force

!min_dist: 2.2 max_dist: 5.8

0 1
Na 0.0 0.0 0.0
Na 2.411849384634712 0.0931787612735181 0.0
Na 3.1672043571306547 4.100998912581009 0.0
Na 4.2211258581165705 9.692976172742988 0.0

--Link1--

%NProcShared=16
%mem=12GB
%Chk=checkpoint.chk
#p B3LYP/6-311+g(d) force

!min_dist: 2.2 max_dist: 5.8

0 1
Na 0.0 0.0 0.0
Na -1.1938637822394023 3.880780577482159 0.0
Na -4.499677147348294 5.969892308167923 0.0
Na -6.533253571742163 7.2550127593968154 0.0

--Link1--

%NProcShared=16
%mem=12GB
%Chk=checkpoint.chk
#p B3LYP/6-311+g(d) force

!min_dist: 2.2 max_dist: 5.8

0 1
Na 0.0 0.0 0.0
Na 0.6530978090647641 4.244139094957022 0.0
Na 0.08279148019161009 9.077219012004422 0.0
Na -0.39998968077867336 13.168563988001129 0.0

--Link1--

%NProcShared=16
%mem=12GB
%Chk=checkpoint.chk
#p B3LYP/6-311+g(d) force

!min_dist: 2.2 max_dist: 5.8

0 1
Na 0.0 0.0 0.0
Na -1.5941891878242413 1.6199603230222106 0.0
Na -3.7041672451466647 -0.4110642233019921 0.0
Na -7.0643876465592434 -3.6455481520063944 0.0

--Link1--


%NProcShared=16
%mem=12GB
%Chk=checkpoint.chk
#p B3LYP/6-311+g(d) force

!min_dist: 2.2 max_dist: 5.8

0 1
Na 0.0 0.0 0.0
Na -4.730061892586185 0.0842513119130777 0.0
Na -6.808563199918769 -0.6405393360338796 0.0
Na -10.205494595726284 -1.825077492787962 0.0

--Link1--


%NProcShared=16
%mem=12GB
%Chk=checkpoint.chk
#p B3LYP/6-311+g(d) force

!min_dist: 2.2 max_dist: 5.8

0 1
Na 0.0 0.0 0.0
Na -1.9411869867070615 2.612353537815078 0.0
Na -3.62023485816212 -1.2549516424547997 0.0
Na -5.018960408512288 -4.476598063981396 0.0

--Link1--

%NProcShared=16
%mem=12GB
%Chk=checkpoint.chk
#p B3LYP/6-311+g(d) force

!min_dist: 2.2 max_dist: 5.8

0 1
Na 0.0 0.0 0.0
Na 2.6889703828271068 1.781923414129054 0.0
Na -2.033448354340185 -1.0761215053881639 0.0
Na -6.1706085697199775 -3.5799633696713875 0.0

--Link1--

%NProcShared=16
%mem=12GB
%Chk=checkpoint.chk
#p B3LYP/6-311+g(d) force

!min_dist: 2.2 max_dist: 5.8

0 1
Na 0.0 0.0 0.0
Na -0.4844765064169252 5.253566832933747 0.0
Na -1.2470792673448314 7.832565561129799 0.0
Na -2.225616274362149 11.141818852476078 0.0

--Link1--

%NProcShared=16
%mem=12GB
%Chk=checkpoint.chk
#p B3LYP/6-311+g(d) force

!min_dist: 2.2 max_dist: 5.8

0 1
Na 0.0 0.0 0.0
Na -2.1843398141123322 3.6785017523171373 0.0
Na -5.262365132351687 4.380696667331457 0.0
Na -7.443165069293251 4.878206098884753 0.0

--Link1--

%NProcShared=16
%mem=12GB
%Chk=checkpoint.chk
#p B3LYP/6-311+g(d) force

!min_dist: 2.2 max_dist: 5.8

0 1
Na 0.0 0.0 0.0
Na 1.6459183426191393 3.56828881732844 0.0
Na -1.7446867917825597 2.9228575938973034 0.0
Na -6.9038463705644375 1.9407666258208216 0.0

--Link1--

%NProcShared=16
%mem=12GB
%Chk=checkpoint.chk
#p B3LYP/6-311+g(d) force

!min_dist: 2.2 max_dist: 5.8

0 1
Na 0.0 0.0 0.0
Na 2.9490568868090357 1.3347908877860393 0.0
Na -0.80017095489305 4.3946230736589555 0.0
Na -3.971352002230694 6.982697804126332 0.0

--Link1--

%NProcShared=16
%mem=12GB
%Chk=checkpoint.chk
#p B3LYP/6-311+g(d) force

!min_dist: 2.2 max_dist: 5.8

0 1
Na 0.0 0.0 0.0
Na 0.9462237917453611 3.3727794548346615 0.0
Na -3.6211411472616546 2.494474689668845 0.0
Na -5.963921751536249 2.0439577294629494 0.0

--Link1--

%NProcShared=16
%mem=12GB
%Chk=checkpoint.chk
#p B3LYP/6-311+g(d) force

!min_dist: 2.2 max_dist: 5.8

0 1
Na 0.0 0.0 0.0
Na -3.1913983994227926 0.7709272749655304 0.0
Na -5.466877230803342 -0.8306391394260039 0.0
Na -9.959643018676998 -3.9928143679339425 0.0

--Link1--

%NProcShared=16
%mem=12GB
%Chk=checkpoint.chk
#p B3LYP/6-311+g(d) force

!min_dist: 2.2 max_dist: 5.8

0 1
Na 0.0 0.0 0.0
Na 2.488344959836088 1.2873254827440552 0.0
Na 1.4328947263896397 4.135815898877624 0.0
Na 0.5292119947615134 6.574710238653927 0.0

--Link1--

%NProcShared=16
%mem=12GB
%Chk=checkpoint.chk
#p B3LYP/6-311+g(d) force

!min_dist: 2.2 max_dist: 5.8

0 1
Na 0.0 0.0 0.0
Na -4.250835538283705 2.665498862405417 0.0
Na -4.021909049791525 -2.5311925950910013 0.0
Na -3.8908895617154644 -5.505369410255283 0.0

--Link1--

%NProcShared=16
%mem=12GB
%Chk=checkpoint.chk
#p B3LYP/6-311+g(d) force

!min_dist: 2.2 max_dist: 5.8

0 1
Na 0.0 0.0 0.0
Na 1.5657643332940936 4.282815831581655 0.0
Na -2.2265907769526985 0.19241968097039752 0.0
Na -4.292158334156496 -2.0354807500797114 0.0

--Link1--

%NProcShared=16
%mem=12GB
%Chk=checkpoint.chk
#p B3LYP/6-311+g(d) force

!min_dist: 2.2 max_dist: 5.8

0 1
Na 0.0 0.0 0.0
Na -2.053491722195287 1.8960182008173219 0.0
Na -4.453865001671234 -1.8744956290271146 0.0
Na -5.6921889304235 -3.81965871641454 0.0

--Link1--

%NProcShared=16
%mem=12GB
%Chk=checkpoint.chk
#p B3LYP/6-311+g(d) force

!min_dist: 2.2 max_dist: 5.8

0 1
Na 0.0 0.0 0.0
Na 0.9692473160891756 3.7850840937975696 0.0
Na -2.32921211256145 4.665417928684365 0.0
Na -7.741896143060328 6.1100222940468045 0.0

--Link1--

%NProcShared=16
%mem=12GB
%Chk=checkpoint.chk
#p B3LYP/6-311+g(d) force

!min_dist: 2.2 max_dist: 5.8

0 1
Na 0.0 0.0 0.0
Na -3.3494675405697016 4.54729722454641 0.0
Na -5.224436318518386 7.048894843060177 0.0
Na -7.309631770438429 9.830978490536085 0.0

--Link1--

%NProcShared=16
%mem=12GB
%Chk=checkpoint.chk
#p B3LYP/6-311+g(d) force

!min_dist: 2.2 max_dist: 5.8

0 1
Na 0.0 0.0 0.0
Na 2.694761618438132 0.06921583031732095 0.0
Na 5.159603595874142 2.846391783622017 0.0
Na 6.840718518772963 4.740530223877257 0.0

--Link1--

%NProcShared=16
%mem=12GB
%Chk=checkpoint.chk
#p B3LYP/6-311+g(d) force

!min_dist: 2.2 max_dist: 5.8

0 1
Na 0.0 0.0 0.0
Na -1.708607837752717 1.7311674090607985 0.0
Na -3.393295939253206 0.051411377266851854 0.0
Na -5.998324877059589 -2.5459911136634723 0.0

--Link1--

%NProcShared=16
%mem=12GB
%Chk=checkpoint.chk
#p B3LYP/6-311+g(d) force

!min_dist: 2.2 max_dist: 5.8

0 1
Na 0.0 0.0 0.0
Na -0.41689053412334814 3.91524195555677 0.0
Na -3.2194605834687966 4.894023404043488 0.0
Na -8.51726746298058 6.744251944287295 0.0

--Link1--

%NProcShared=16
%mem=12GB
%Chk=checkpoint.chk
#p B3LYP/6-311+g(d) force

!min_dist: 2.2 max_dist: 5.8

0 1
Na 0.0 0.0 0.0
Na 2.334089352747131 3.2437864567141683 0.0
Na -1.8013001136186575 1.921942070406281 0.0
Na -5.125044357242039 0.8595336308409167 0.0

--Link1--

%NProcShared=16
%mem=12GB
%Chk=checkpoint.chk
#p B3LYP/6-311+g(d) force

!min_dist: 2.2 max_dist: 5.8

0 1
Na 0.0 0.0 0.0
Na 1.6180905536738055 2.2730721709689297 0.0
Na -3.0043583387796615 0.19490315445323336 0.0
Na -6.013794157379955 -1.158084497961496 0.0

--Link1--


%NProcShared=16
%mem=12GB
%Chk=checkpoint.chk
#p B3LYP/6-311+g(d) force

!min_dist: 2.2 max_dist: 5.8

0 1
Na 0.0 0.0 0.0
Na 0.4188454100407329 2.2631206770349093 0.0
Na 0.14079123104429836 4.992427720561861 0.0
Na -0.4016119578549855 10.316515454964435 0.0

--Link1--



%NProcShared=16
%mem=12GB
%Chk=checkpoint.chk
#p B3LYP/6-311+g(d) force

!min_dist: 2.2 max_dist: 5.8

0 1
Na 0.0 0.0 0.0
Na -2.128238438316268 4.178907821746946 0.0
Na -4.884996564087448 6.215490008854431 0.0
Na -8.770813200073011 9.086175278350215 0.0

--Link1--

%NProcShared=16
%mem=12GB
%Chk=checkpoint.chk
#p B3LYP/6-311+g(d) force

!min_dist: 2.2 max_dist: 5.8

0 1
Na 0.0 0.0 0.0
Na 0.4143922737634171 5.412600970779633 0.0
Na -3.119218157687347 2.992294889214232 0.0
Na -5.941834223112596 1.0589762731413939 0.0

--Link1--

%NProcShared=16
%mem=12GB
%Chk=checkpoint.chk
#p B3LYP/6-311+g(d) force

!min_dist: 2.2 max_dist: 5.8

0 1
Na 0.0 0.0 0.0
Na 1.0295303495964248 3.6986932995806168 0.0
Na -1.8821779507865644 -1.2046082805045897 0.0
Na -4.831793597683075 -6.171745634259891 0.0

--Link1--

%NProcShared=16
%mem=12GB
%Chk=checkpoint.chk
#p B3LYP/6-311+g(d) force

!min_dist: 2.2 max_dist: 5.8

0 1
Na 0.0 0.0 0.0
Na -0.8533719293579924 3.1832494850432496 0.0
Na -2.846212660261253 8.088680441691437 0.0
Na -4.971261439407493 13.319545058196223 0.0

--Link1--

%NProcShared=16
%mem=12GB
%Chk=checkpoint.chk
#p B3LYP/6-311+g(d) force

!min_dist: 2.2 max_dist: 5.8

0 1
Na 0.0 0.0 0.0
Na 3.482824823082241 2.804715178130972 0.0
Na 0.6349777752615573 2.2777780611965195 0.0
Na -2.7181674388669035 1.657345628511089 0.0

--Link1--


%NProcShared=16
%mem=12GB
%Chk=checkpoint.chk
#p B3LYP/6-311+g(d) force

!min_dist: 2.2 max_dist: 5.8

0 1
Na 0.0 0.0 0.0
Na 0.9888132675178113 5.201329826723937 0.0
Na 0.46236972754366523 8.45197097952855 0.0
Na -0.07365222171706076 11.761756122222168 0.0

--Link1--


%NProcShared=16
%mem=12GB
%Chk=checkpoint.chk
#p B3LYP/6-311+g(d) force

!min_dist: 2.2 max_dist: 5.8

0 1
Na 0.0 0.0 0.0
Na 1.5393987708283337 1.704519194428867 0.0
Na 3.7655480876356204 5.798082185571407 0.0
Na 6.2464785835853505 10.360150500190167 0.0

--Link1--

%NProcShared=16
%mem=12GB
%Chk=checkpoint.chk
#p B3LYP/6-311+g(d) force

!min_dist: 2.2 max_dist: 5.8

0 1
Na 0.0 0.0 0.0
Na -2.2598644537034747 0.9600435018793482 0.0
Na -4.806217712768728 -0.4921614242661131 0.0
Na -9.359777759405018 -3.0890918806678505 0.0

--Link1--

%NProcShared=16
%mem=12GB
%Chk=checkpoint.chk
#p B3LYP/6-311+g(d) force

!min_dist: 2.2 max_dist: 5.8

0 1
Na 0.0 0.0 0.0
Na -4.5673208767217846 0.1201653330270749 0.0
Na -0.33704884063176355 -2.772014087586912 0.0
Na 2.6296100846514596 -4.800278421058812 0.0

--Link1--

%NProcShared=16
%mem=12GB
%Chk=checkpoint.chk
#p B3LYP/6-311+g(d) force

!min_dist: 2.2 max_dist: 5.8

0 1
Na 0.0 0.0 0.0
Na -0.8728205616722728 5.062190372477617 0.0
Na -3.0606290801036957 0.6053507239801341 0.0
Na -4.095575404834968 -1.5029644120428949 0.0

--Link1--


%NProcShared=16
%mem=12GB
%Chk=checkpoint.chk
#p B3LYP/6-311+g(d) force

!min_dist: 2.2 max_dist: 5.8

0 1
Na 0.0 0.0 0.0
Na 2.95521441360694 1.8342288016944617 0.0
Na 0.2912074889553984 3.385991895598874 0.0
Na -2.0896067376004597 4.772797468822075 0.0

--Link1--

%NProcShared=16
%mem=12GB
%Chk=checkpoint.chk
#p B3LYP/6-311+g(d) force

!min_dist: 2.2 max_dist: 5.8

0 1
Na 0.0 0.0 0.0
Na -1.8826713910316848 2.104565974985969 0.0
Na -4.458477593068022 0.4712233532469141 0.0
Na -8.833630807961677 -2.3031019111596236 0.0

--Link1--

%NProcShared=16
%mem=12GB
%Chk=checkpoint.chk
#p B3LYP/6-311+g(d) force

!min_dist: 2.2 max_dist: 5.8

0 1
Na 0.0 0.0 0.0
Na 2.7860589383966823 0.35105366244469416 0.0
Na 1.1802126964197983 2.883186592473426 0.0
Na -0.0005809478701315207 4.745087434607853 0.0

--Link1--

%NProcShared=16
%mem=12GB
%Chk=checkpoint.chk
#p B3LYP/6-311+g(d) force

!min_dist: 2.2 max_dist: 5.8

0 1
Na 0.0 0.0 0.0
Na 0.03305540292204776 5.184451760230905 0.0
Na -1.318017493460463 3.0474130754031323 0.0
Na -2.736188295449053 0.8042433147947392 0.0

--Link1--

%NProcShared=16
%mem=12GB
%Chk=checkpoint.chk
#p B3LYP/6-311+g(d) force

!min_dist: 2.2 max_dist: 5.8

0 1
Na 0.0 0.0 0.0
Na -1.7792055050839728 4.8494683580543185 0.0
Na -2.973733493575604 1.108298784373308 0.0
Na -4.685428229987494 -4.2525971753608 0.0

--Link1--

%NProcShared=16
%mem=12GB
%Chk=checkpoint.chk
#p B3LYP/6-311+g(d) force

!min_dist: 2.2 max_dist: 5.8

0 1
Na 0.0 0.0 0.0
Na -1.8096379390057975 4.057895149337835 0.0
Na -3.7334175498995235 5.508335584603936 0.0
Na -7.399469607701057 8.272368487497399 0.0

--Link1--

%NProcShared=16
%mem=12GB
%Chk=checkpoint.chk
#p B3LYP/6-311+g(d) force

!min_dist: 2.2 max_dist: 5.8

0 1
Na 0.0 0.0 0.0
Na -3.8415446752027083 1.2474241973999018 0.0
Na -4.193646006128019 -4.353580862676646 0.0
Na -4.418032092338545 -7.922972665238502 0.0

--Link1--

%NProcShared=16
%mem=12GB
%Chk=checkpoint.chk
#p B3LYP/6-311+g(d) force

!min_dist: 2.2 max_dist: 5.8

0 1
Na 0.0 0.0 0.0
Na -4.720508562819414 1.957620887548607 0.0
Na -6.601226368130549 -1.2192212789212893 0.0
Na -8.739346647354933 -4.830858623366332 0.0

--Link1--

%NProcShared=16
%mem=12GB
%Chk=checkpoint.chk
#p B3LYP/6-311+g(d) force

!min_dist: 2.2 max_dist: 5.8

0 1
Na 0.0 0.0 0.0
Na -0.7506793742907042 4.271389552811416 0.0
Na -5.922645014203979 4.805729076174061 0.0
Na -9.494236121482283 5.174726556586818 0.0

--Link1--

%NProcShared=16
%mem=12GB
%Chk=checkpoint.chk
#p B3LYP/6-311+g(d) force

!min_dist: 2.2 max_dist: 5.8

0 1
Na 0.0 0.0 0.0
Na 3.8789653052841144 0.7447830618709678 0.0
Na 1.8312907874372466 2.7506654210021617 0.0
Na -1.848314984191906 6.355172016918206 0.0

--Link1--

%NProcShared=16
%mem=12GB
%Chk=checkpoint.chk
#p B3LYP/6-311+g(d) force

!min_dist: 2.2 max_dist: 5.8

0 1
Na 0.0 0.0 0.0
Na 4.979032137950524 0.3894532023234715 0.0
Na 9.455829929461071 1.6124864114293012 0.0
Na 13.380083494835679 2.684567987350931 0.0

--Link1--

%NProcShared=16
%mem=12GB
%Chk=checkpoint.chk
#p B3LYP/6-311+g(d) force

!min_dist: 2.2 max_dist: 5.8

0 1
Na 0.0 0.0 0.0
Na 0.6562543019708997 4.605876527378294 0.0
Na -0.8110394320814494 2.90499770526806 0.0
Na -3.8091883912451148 -0.5704400696140244 0.0

--Link1--

%NProcShared=16
%mem=12GB
%Chk=checkpoint.chk
#p B3LYP/6-311+g(d) force

!min_dist: 2.2 max_dist: 5.8

0 1
Na 0.0 0.0 0.0
Na 2.5546849214215586 3.048852539787926 0.0
Na 3.9998159463701666 5.379321071427936 0.0
Na 5.5567000984480694 7.890006581038125 0.0

--Link1--

%NProcShared=16
%mem=12GB
%Chk=checkpoint.chk
#p B3LYP/6-311+g(d) force

!min_dist: 2.2 max_dist: 5.8

0 1
Na 0.0 0.0 0.0
Na 1.7993675493147472 2.3648882474981927 0.0
Na -3.148858404039269 3.9950769104368984 0.0
Na -6.924755578185266 5.239042894153309 0.0

--Link1--


%NProcShared=16
%mem=12GB
%Chk=checkpoint.chk
#p B3LYP/6-311+g(d) force

!min_dist: 2.2 max_dist: 5.8

0 1
Na 0.0 0.0 0.0
Na 0.5056101055743698 4.948213282976189 0.0
Na -1.8652250612157981 2.4545951749071033 0.0
Na -5.220060232470178 -1.0739832137596719 0.0

--Link1--

%NProcShared=16
%mem=12GB
%Chk=checkpoint.chk
#p B3LYP/6-311+g(d) force

!min_dist: 2.2 max_dist: 5.8

0 1
Na 0.0 0.0 0.0
Na -0.5437740383390085 5.247386857598896 0.0
Na -2.600880731612216 4.10440508597936 0.0
Na -6.500018617609971 1.937943062740651 0.0

--Link1--

%NProcShared=16
%mem=12GB
%Chk=checkpoint.chk
#p B3LYP/6-311+g(d) force

!min_dist: 2.2 max_dist: 5.8

0 1
Na 0.0 0.0 0.0
Na 1.520308773222915 4.954448275684 0.0
Na -0.6498426729650486 5.777641936905129 0.0
Na -4.548297915078628 7.256425203160279 0.0

--Link1--

%NProcShared=16
%mem=12GB
%Chk=checkpoint.chk
#p B3LYP/6-311+g(d) force

!min_dist: 2.2 max_dist: 5.8

0 1
Na 0.0 0.0 0.0
Na 1.4387424580663026 2.2758477601443934 0.0
Na -1.9177844313980161 1.7771624508366604 0.0
Na -4.689672834003538 1.3653379456438957 0.0

--Link1--

%NProcShared=16
%mem=12GB
%Chk=checkpoint.chk
#p B3LYP/6-311+g(d) force

!min_dist: 2.2 max_dist: 5.8

0 1
Na 0.0 0.0 0.0
Na 2.964308143043273 4.432529836423069 0.0
Na -0.34539110764551806 7.753922846848782 0.0
Na -2.9835606355534905 10.401413499810097 0.0

--Link1--

%NProcShared=16
%mem=12GB
%Chk=checkpoint.chk
#p B3LYP/6-311+g(d) force

!min_dist: 2.2 max_dist: 5.8

0 1
Na 0.0 0.0 0.0
Na -2.770913872863144 0.9370383202834508 0.0
Na -3.8935264581835622 -4.033735809461036 0.0
Na -4.596201391167692 -7.145083770610536 0.0

--Link1--

%NProcShared=16
%mem=12GB
%Chk=checkpoint.chk
#p B3LYP/6-311+g(d) force

!min_dist: 2.2 max_dist: 5.8

0 1
Na 0.0 0.0 0.0
Na -1.0352443165209482 4.676943158676323 0.0
Na -2.648326809188246 1.988616485849212 0.0
Na -4.0775938232733 -0.39336748212712624 0.0

--Link1--

%NProcShared=16
%mem=12GB
%Chk=checkpoint.chk
#p B3LYP/6-311+g(d) force

!min_dist: 2.2 max_dist: 5.8

0 1
Na 0.0 0.0 0.0
Na 4.0874540785727635 2.2516546181890504 0.0
Na 1.1852444659340104 6.604246875610052 0.0
Na -0.7528237902943304 9.510867007276918 0.0

--Link1--

%NProcShared=16
%mem=12GB
%Chk=checkpoint.chk
#p B3LYP/6-311+g(d) force

!min_dist: 2.2 max_dist: 5.8

0 1
Na 0.0 0.0 0.0
Na 3.0947161378984007 3.553772266854369 0.0
Na 0.7401912431619535 4.464662231313834 0.0
Na -3.8655178745506595 6.246462977580089 0.0

--Link1--

%NProcShared=16
%mem=12GB
%Chk=checkpoint.chk
#p B3LYP/6-311+g(d) force

!min_dist: 2.2 max_dist: 5.8

0 1
Na 0.0 0.0 0.0
Na 3.7016830245342263 2.9621041856578643 0.0
Na 7.001293378751606 7.10072351449727 0.0
Na 10.591253559913934 11.603521421084094 0.0

--Link1--

%NProcShared=16
%mem=12GB
%Chk=checkpoint.chk
#p B3LYP/6-311+g(d) force

!min_dist: 2.2 max_dist: 5.8

0 1
Na 0.0 0.0 0.0
Na -3.0653623832750054 4.595184845283973 0.0
Na -4.800125436960013 2.3792474320638397 0.0
Na -7.305571260561365 -0.8211384220854758 0.0

--Link1--

%NProcShared=16
%mem=12GB
%Chk=checkpoint.chk
#p B3LYP/6-311+g(d) force

!min_dist: 2.2 max_dist: 5.8

0 1
Na 0.0 0.0 0.0
Na -4.253544391020865 3.1799198810336033 0.0
Na -10.044807793872161 3.0955368979339397 0.0
Na -12.328291437796079 3.062264855491746 0.0

--Link1--

%NProcShared=16
%mem=12GB
%Chk=checkpoint.chk
#p B3LYP/6-311+g(d) force

!min_dist: 2.2 max_dist: 5.8

0 1
Na 0.0 0.0 0.0
Na 2.0712567100836727 1.6224555570761419 0.0
Na -0.14275595872816993 5.958052065090124 0.0
Na -2.131033643161749 9.851602407879492 0.0

--Link1--


%NProcShared=16
%mem=12GB
%Chk=checkpoint.chk
#p B3LYP/6-311+g(d) force

!min_dist: 2.2 max_dist: 5.8

0 1
Na 0.0 0.0 0.0
Na -1.102641157525462 2.440118773017303 0.0
Na -2.502175389947298 -0.36366784665406193 0.0
Na -4.653221007617397 -4.6730107561802035 0.0

--Link1--

%NProcShared=16
%mem=12GB
%Chk=checkpoint.chk
#p B3LYP/6-311+g(d) force

!min_dist: 2.2 max_dist: 5.8

0 1
Na 0.0 0.0 0.0
Na 0.4289216620816208 2.8662019294963463 0.0
Na -3.397500673876557 -0.4335880147256068 0.0
Na -7.595653628195852 -4.053947109116986 0.0

--Link1--

%NProcShared=16
%mem=12GB
%Chk=checkpoint.chk
#p B3LYP/6-311+g(d) force

!min_dist: 2.2 max_dist: 5.8

0 1
Na 0.0 0.0 0.0
Na 0.8206090763299763 4.070800185401067 0.0
Na -3.4051327096213795 5.336664905929548 0.0
Na -7.240496833825608 6.4855879545056725 0.0

--Link1--

%NProcShared=16
%mem=12GB
%Chk=checkpoint.chk
#p B3LYP/6-311+g(d) force

!min_dist: 2.2 max_dist: 5.8

0 1
Na 0.0 0.0 0.0
Na -1.7639652904474172 1.4785273527663103 0.0
Na -4.312006657106543 3.542397781570344 0.0
Na -6.103344980674691 4.993351538590052 0.0

--Link1--

%NProcShared=16
%mem=12GB
%Chk=checkpoint.chk
#p B3LYP/6-311+g(d) force

!min_dist: 2.2 max_dist: 5.8

0 1
Na 0.0 0.0 0.0
Na -3.474276064387177 1.8320096149890885 0.0
Na -3.68234150852022 -0.664478401847562 0.0
Na -3.9730843593597394 -4.152977158218018 0.0

--Link1--

%NProcShared=16
%mem=12GB
%Chk=checkpoint.chk
#p B3LYP/6-311+g(d) force

!min_dist: 2.2 max_dist: 5.8

0 1
Na 0.0 0.0 0.0
Na -4.3833571548236065 3.7044931322266006 0.0
Na -7.284527227699238 4.48877895874556 0.0
Na -11.67718953836398 5.676266318810461 0.0

--Link1--

%NProcShared=16
%mem=12GB
%Chk=checkpoint.chk
#p B3LYP/6-311+g(d) force

!min_dist: 2.2 max_dist: 5.8

0 1
Na 0.0 0.0 0.0
Na -0.25800932990575454 3.9125837705012687 0.0
Na -4.2731814896648235 2.4395485934370833 0.0
Na -7.60493241071754 1.2172382882617399 0.0

--Link1--

%NProcShared=16
%mem=12GB
%Chk=checkpoint.chk
#p B3LYP/6-311+g(d) force

!min_dist: 2.2 max_dist: 5.8

0 1
Na 0.0 0.0 0.0
Na -3.800694441178837 3.4495978499746496 0.0
Na -4.653731497540455 1.320512196853426 0.0
Na -6.056732592017868 -2.181222551113895 0.0

--Link1--

%NProcShared=16
%mem=12GB
%Chk=checkpoint.chk
#p B3LYP/6-311+g(d) force

!min_dist: 2.2 max_dist: 5.8

0 1
Na 0.0 0.0 0.0
Na 1.4981458464556099 1.7494183588747174 0.0
Na 1.306384549052552 4.721438748171456 0.0
Na 1.1188712658768751 7.627621113483295 0.0

--Link1--

%NProcShared=16
%mem=12GB
%Chk=checkpoint.chk
#p B3LYP/6-311+g(d) force

!min_dist: 2.2 max_dist: 5.8

0 1
Na 0.0 0.0 0.0
Na -0.6971689537828242 4.613607355899426 0.0
Na -3.8762183382346094 7.884230380225018 0.0
Na -6.187945150228643 10.262547299187355 0.0

